@<TRIPOS>MOLECULE
*****
 47 49 0 0 0
SMALL
GASTEIGER

@<TRIPOS>ATOM
      1 C           3.2751   -1.4473    0.9334 C.ar    1  UNL1        0.1205
      2 N           2.6841   -2.4205    0.2074 N.ar    1  UNL1       -0.2188
      3 C           1.7562   -2.0671   -0.7086 C.ar    1  UNL1        0.1472
      4 C           1.4070   -0.7147   -0.8250 C.ar    1  UNL1        0.1473
      5 C           2.1316    0.1857   -0.0415 C.ar    1  UNL1        0.1674
      6 N           3.0797   -0.1150    0.8614 N.ar    1  UNL1       -0.2159
      7 N           1.7009    1.4387   -0.4126 N.ar    1  UNL1       -0.2855
      8 C           0.6773    1.2470   -1.2958 C.ar    1  UNL1        0.1004
      9 N           0.4948   -0.0226   -1.5841 N.ar    1  UNL1       -0.2306
     10 C           2.3042    2.6796    0.0530 C.3     1  UNL1        0.1667
     11 C           1.6463    3.3006    1.2862 C.3     1  UNL1        0.1285
     12 C           1.6841    4.8080    1.0172 C.3     1  UNL1        0.1135
     13 C           2.3965    5.0047   -0.3503 C.3     1  UNL1        0.1134
     14 O           2.3059    3.7065   -0.9923 O.3     1  UNL1       -0.3456
     15 C           3.8755    5.5272   -0.1899 C.3     1  UNL1        0.0879
     16 O           4.5657    6.0909   -1.3391 O.3     1  UNL1       -0.2837
     17 P           6.2017    6.0197   -1.3290 P.3     1  UNL1        0.4835
     18 O           6.7709    5.1399   -0.2570 O.2     1  UNL1       -0.2269
     19 O           6.4818    5.3367   -2.7563 O.3     1  UNL1       -0.3022
     20 O           6.9057    7.4879   -1.5186 O.3     1  UNL1       -0.1858
     21 P           5.9372    8.6575   -0.6897 P.3     1  UNL1        0.4918
     22 O           6.5533    8.2304    0.6457 O.2     1  UNL1       -0.2265
     23 O           6.9133    9.8113   -1.3067 O.3     1  UNL1       -0.3019
     24 O           4.9688    9.8270    0.1392 O.3     1  UNL1       -0.1859
     25 P           5.9735   11.1256    0.6844 P.3     1  UNL1        0.4808
     26 O           5.1700   12.1060   -0.1750 O.2     1  UNL1       -0.2271
     27 O           5.2223   11.1532    2.1326 O.3     1  UNL1       -0.3023
     28 O           6.9781   12.4242    1.2295 O.3     1  UNL1       -0.3023
     29 O           2.2464    5.5880    2.0705 O.3     1  UNL1       -0.3864
     30 O           2.2804    2.9419    2.5197 O.3     1  UNL1       -0.3847
     31 N           1.2117   -3.0689   -1.4935 N.pl3   1  UNL1       -0.3413
     32 H           4.0016   -1.7841    1.6664 H       1  UNL1        0.1048
     33 H           0.1131    2.0717   -1.7165 H       1  UNL1        0.1030
     34 H           3.3607    2.4581    0.2473 H       1  UNL1        0.0866
     35 H           0.6038    2.9744    1.3728 H       1  UNL1        0.0665
     36 H           0.6458    5.1479    0.9116 H       1  UNL1        0.0647
     37 H           1.8261    5.7091   -0.9722 H       1  UNL1        0.0647
     38 H           4.4636    4.6941    0.1936 H       1  UNL1        0.0592
     39 H           3.8820    6.3432    0.5348 H       1  UNL1        0.0592
     40 H           7.0236    4.5319   -2.6294 H       1  UNL1        0.2220
     41 H           6.6653   10.1073   -2.2078 H       1  UNL1        0.2220
     42 H           4.4895   11.7925    2.0503 H       1  UNL1        0.2220
     43 H           7.6230   12.0681    1.8660 H       1  UNL1        0.2220
     44 H           3.0608    5.1680    2.4042 H       1  UNL1        0.2100
     45 H           3.2373    3.0947    2.4697 H       1  UNL1        0.2101
     46 H           1.3329   -3.9972   -1.1028 H       1  UNL1        0.1438
     47 H           0.3223   -2.8401   -1.9260 H       1  UNL1        0.1438
@<TRIPOS>BOND
     1     1     2   ar
     2     2     3   ar
     3     3     4   ar
     4     4     5   ar
     5     5     6   ar
     6     1     6   ar
     7     5     7   ar
     8     7     8   ar
     9     8     9   ar
    10     4     9   ar
    11     7    10    1
    12    10    11    1
    13    11    12    1
    14    12    13    1
    15    13    14    1
    16    10    14    1
    17    13    15    1
    18    15    16    1
    19    16    17    1
    20    17    18    2
    21    17    19    1
    22    17    20    1
    23    20    21    1
    24    21    22    2
    25    21    23    1
    26    21    24    1
    27    24    25    1
    28    25    26    2
    29    25    27    1
    30    25    28    1
    31    12    29    1
    32    11    30    1
    33     3    31    1
    34     1    32    1
    35     8    33    1
    36    10    34    1
    37    11    35    1
    38    12    36    1
    39    13    37    1
    40    15    38    1
    41    15    39    1
    42    19    40    1
    43    23    41    1
    44    27    42    1
    45    28    43    1
    46    29    44    1
    47    30    45    1
    48    31    46    1
    49    31    47    1
