REMARK best energy run 2 in file:DLG.dlg
REMARK binding_energy   -3.23000
REMARK translation   -81.7551   -47.2018     9.1459
REMARK quaternion0    -0.6481    -0.4847    -0.3978    -0.4322
REMARK  15 active torsions:
REMARK  status: ('A' for Active; 'I' for Inactive)
REMARK    1  A    between atoms: C_3  and  N_31 
REMARK    2  A    between atoms: N_7  and  C_10 
REMARK    3  A    between atoms: C_11  and  O_30 
REMARK    4  A    between atoms: C_12  and  O_29 
REMARK    5  A    between atoms: C_13  and  C_15 
REMARK    6  A    between atoms: C_15  and  O_16 
REMARK    7  A    between atoms: O_16  and  P_17 
REMARK    8  A    between atoms: P_17  and  O_19 
REMARK    9  A    between atoms: P_17  and  O_20 
REMARK   10  A    between atoms: O_20  and  P_21 
REMARK   11  A    between atoms: P_21  and  O_23 
REMARK   12  A    between atoms: P_21  and  O_24 
REMARK   13  A    between atoms: O_24  and  P_25 
REMARK   14  A    between atoms: P_25  and  O_27 
REMARK   15  A    between atoms: P_25  and  O_28 
ROOT
ATOM      1  C   UNL d   1     -83.950 -47.222   8.016  0.00  0.00     0.253 C 
ATOM      2  C   UNL d   1     -83.368 -46.340   6.910  0.00  0.00     0.195 C 
ATOM      3  C   UNL d   1     -81.920 -46.820   6.766  0.00  0.00     0.178 C 
ATOM      4  C   UNL d   1     -81.709 -47.941   7.822  0.00  0.00     0.178 C 
ATOM      5  O   UNL d   1     -83.052 -48.371   8.162  0.00  0.00    -0.346 OA
ENDROOT
BRANCH   4   6
ATOM      6  C   UNL d   1     -80.870 -47.450   9.063  0.00  0.00     0.206 C 
BRANCH   6   7
ATOM      7  O   UNL d   1     -79.460 -47.134   8.897  0.00  0.00    -0.284 OA
BRANCH   7   8
ATOM      8  P   UNL d   1     -78.592 -48.114   7.914  0.00  0.00     0.483 P 
ATOM      9  O   UNL d   1     -78.845 -49.576   8.127  0.00  0.00    -0.227 OA
BRANCH   8  10
ATOM     10  O   UNL d   1     -79.177 -47.696   6.478  0.00  0.00    -0.302 OA
ATOM     11  H   UNL d   1     -78.606 -48.067   5.775  0.00  0.00     0.222 HD
ENDBRANCH   8  10
BRANCH   8  12
ATOM     12  O   UNL d   1     -77.023 -47.657   7.780  0.00  0.00    -0.186 OA
BRANCH  12  13
ATOM     13  P   UNL d   1     -76.965 -46.224   6.811  0.00  0.00     0.492 P 
ATOM     14  O   UNL d   1     -75.643 -45.823   7.474  0.00  0.00    -0.227 OA
BRANCH  13  15
ATOM     15  O   UNL d   1     -76.580 -47.175   5.541  0.00  0.00    -0.302 OA
ATOM     16  H   UNL d   1     -75.619 -47.230   5.357  0.00  0.00     0.222 HD
ENDBRANCH  13  15
BRANCH  13  17
ATOM     17  O   UNL d   1     -76.905 -44.793   5.842  0.00  0.00    -0.186 OA
BRANCH  17  18
ATOM     18  P   UNL d   1     -78.477 -44.467   5.196  0.00  0.00     0.481 P 
ATOM     19  O   UNL d   1     -78.672 -45.960   4.921  0.00  0.00    -0.227 OA
BRANCH  18  20
ATOM     20  O   UNL d   1     -79.092 -44.251   6.693  0.00  0.00    -0.302 OA
ATOM     21  H   UNL d   1     -78.889 -45.065   7.193  0.00  0.00     0.222 HD
ENDBRANCH  18  20
BRANCH  18  22
ATOM     22  O   UNL d   1     -80.048 -44.139   4.551  0.00  0.00    -0.302 OA
ATOM     23  H   UNL d   1     -80.713 -44.516   5.153  0.00  0.00     0.222 HD
ENDBRANCH  18  22
ENDBRANCH  17  18
ENDBRANCH  13  17
ENDBRANCH  12  13
ENDBRANCH   8  12
ENDBRANCH   7   8
ENDBRANCH   6   7
ENDBRANCH   4   6
BRANCH   3  24
ATOM     24  O   UNL d   1     -80.940 -45.785   6.828  0.00  0.00    -0.386 OA
ATOM     25  H   UNL d   1     -80.316 -45.867   6.083  0.00  0.00     0.210 HD
ENDBRANCH   3  24
BRANCH   2  26
ATOM     26  O   UNL d   1     -83.462 -44.937   7.183  0.00  0.00    -0.385 OA
ATOM     27  H   UNL d   1     -82.901 -44.431   6.573  0.00  0.00     0.210 HD
ENDBRANCH   2  26
BRANCH   1  28
ATOM     28  N   UNL d   1     -85.330 -47.640   7.813  0.00  0.00    -0.285 N 
ATOM     29  C   UNL d   1     -85.936 -47.726   6.581  0.00  0.00     0.167 A 
ATOM     30  C   UNL d   1     -87.282 -47.999   6.835  0.00  0.00     0.147 A 
ATOM     31  N   UNL d   1     -85.365 -47.549   5.378  0.00  0.00    -0.216 NA
ATOM     32  C   UNL d   1     -88.138 -48.018   5.726  0.00  0.00     0.147 A 
ATOM     33  N   UNL d   1     -87.463 -48.164   8.187  0.00  0.00    -0.231 NA
ATOM     34  N   UNL d   1     -87.604 -47.873   4.493  0.00  0.00    -0.219 NA
ATOM     35  C   UNL d   1     -86.274 -47.661   4.389  0.00  0.00     0.225 A 
ATOM     36  C   UNL d   1     -86.283 -47.972   8.734  0.00  0.00     0.203 A 
BRANCH  32  37
ATOM     37  N   UNL d   1     -89.511 -48.162   5.820  0.00  0.00    -0.341 N 
ATOM     38  H   UNL d   1     -90.025 -47.361   5.470  0.00  0.00     0.144 HD
ATOM     39  H   UNL d   1     -89.860 -49.091   5.603  0.00  0.00     0.144 HD
ENDBRANCH  32  37
ENDBRANCH   1  28
TORSDOF 15
