@<TRIPOS>MOLECULE
CS1
 26 27 0 0 0
SMALL
GASTEIGER

@<TRIPOS>ATOM
      1 BR         -1.5309   -0.2782   -0.0454 Br      1  UNL1       -0.0503
      2 C           0.3554   -0.1972    0.0303 C.ar    1  UNL1        0.0179
      3 C           1.1193   -1.0390   -0.7768 C.ar    1  UNL1       -0.0470
      4 C           2.5173   -1.0059   -0.6995 C.ar    1  UNL1       -0.0486
      5 C           3.1523   -0.1338    0.1961 C.ar    1  UNL1        0.0371
      6 C           2.3654    0.7289    0.9786 C.ar    1  UNL1       -0.0486
      7 C           0.9722    0.6962    0.9004 C.ar    1  UNL1       -0.0470
      8 C           4.6325   -0.0767    0.4052 C.2     1  UNL1        0.2494
      9 O           5.0947    0.8661    1.0438 O.2     1  UNL1       -0.2698
     10 N           5.3830   -1.0845   -0.1552 N.am    1  UNL1       -0.2649
     11 C           6.7480   -1.1670   -0.0141 C.ar    1  UNL1        0.1471
     12 N           7.4723   -1.7675   -0.9548 N.ar    1  UNL1       -0.1584
     13 N           8.7393   -1.5488   -0.5753 N.ar    1  UNL1       -0.2801
     14 C           8.8486   -1.0066    0.6739 C.ar    1  UNL1        0.0349
     15 C           7.5580   -0.7190    1.0569 C.ar    1  UNL1        0.0006
     16 C          10.1472   -0.8123    1.3536 C.3     1  UNL1       -0.0228
     17 H           0.6366   -1.7286   -1.4658 H       1  UNL1        0.0629
     18 H           3.0725   -1.6701   -1.3531 H       1  UNL1        0.0625
     19 H           2.8394    1.4257    1.6685 H       1  UNL1        0.0625
     20 H           0.3866    1.3629    1.5271 H       1  UNL1        0.0629
     21 H           5.0323   -1.6833   -0.8826 H       1  UNL1        0.1566
     22 H           9.4843   -1.8049   -1.2144 H       1  UNL1        0.1886
     23 H           7.2376   -0.2698    1.9852 H       1  UNL1        0.0670
     24 H          10.9755   -0.7976    0.6385 H       1  UNL1        0.0292
     25 H          10.3256   -1.6265    2.0637 H       1  UNL1        0.0292
     26 H          10.1601    0.1326    1.9061 H       1  UNL1        0.0292
@<TRIPOS>BOND
     1     1     2    1
     2     2     3   ar
     3     3     4   ar
     4     4     5   ar
     5     5     6   ar
     6     6     7   ar
     7     2     7   ar
     8     5     8    1
     9     8     9    2
    10     8    10   am
    11    10    11    1
    12    11    12   ar
    13    12    13   ar
    14    13    14   ar
    15    14    15   ar
    16    11    15   ar
    17    14    16    1
    18     3    17    1
    19     4    18    1
    20     6    19    1
    21     7    20    1
    22    10    21    1
    23    13    22    1
    24    15    23    1
    25    16    24    1
    26    16    25    1
    27    16    26    1
