@<TRIPOS>MOLECULE
CS100
 50 53 0 0 0
SMALL
GASTEIGER

@<TRIPOS>ATOM
      1 C          -5.3315    2.4518   -6.4553 C.3     1  UNL1       -0.0397
      2 C          -4.7936    1.8046   -5.2156 C.ar    1  UNL1       -0.0503
      3 C          -3.5495    2.1711   -4.6931 C.ar    1  UNL1       -0.0570
      4 C          -3.1042    1.6465   -3.4710 C.ar    1  UNL1       -0.0348
      5 C          -3.9503    0.8193   -2.7155 C.ar    1  UNL1        0.1085
      6 S          -3.5253    0.1596   -1.0760 S.O2    1  UNL1        0.0724
      7 O          -4.2966   -1.0375   -0.8441 O.2     1  UNL1       -0.1500
      8 O          -2.1409   -0.0576   -1.0113 O.2     1  UNL1       -0.1500
      9 N          -4.1409    1.4367   -0.0213 N.pl3   1  UNL1       -0.2159
     10 C          -5.5425    1.7710   -0.0472 C.ar    1  UNL1        0.0527
     11 C          -6.3812    1.0869    0.8247 C.ar    1  UNL1       -0.0081
     12 C          -5.9698   -0.0836    1.8495 C.3     1  UNL1        0.0362
     13 N          -6.6581   -0.3781    3.1908 N.pl3   1  UNL1       -0.3385
     14 C          -6.4931   -1.4024    4.3584 C.ar    1  UNL1        0.0463
     15 C          -5.6524   -2.5298    4.7392 C.ar    1  UNL1        0.0491
     16 N          -6.0024   -2.9865    6.0024 N.ar    1  UNL1       -0.2531
     17 C          -7.2742   -3.0766    6.3414 C.ar    1  UNL1        0.0711
     18 C          -7.7602   -4.2502    6.7969 C.ar    1  UNL1       -0.0357
     19 C          -9.0756   -4.3073    7.2095 C.ar    1  UNL1       -0.0597
     20 C          -9.8560   -3.1276    7.1434 C.ar    1  UNL1       -0.0611
     21 C          -9.3338   -1.9556    6.6642 C.ar    1  UNL1       -0.0525
     22 C          -8.0850   -2.0143    6.1133 C.ar    1  UNL1        0.0021
     23 C          -7.6029   -1.1074    5.2089 C.ar    1  UNL1       -0.0302
     24 C          -7.7707    1.4504    0.7262 C.ar    1  UNL1       -0.0553
     25 C          -8.2834    2.4404   -0.1576 C.ar    1  UNL1       -0.0613
     26 C          -7.4218    3.1424   -0.9804 C.ar    1  UNL1       -0.0600
     27 C          -6.0464    2.8287   -0.9108 C.ar    1  UNL1       -0.0390
     28 C          -5.1252    0.3451   -3.3118 C.ar    1  UNL1       -0.0348
     29 C          -5.5511    0.8412   -4.5465 C.ar    1  UNL1       -0.0570
     30 H          -4.6298    3.1962   -6.8449 H       1  UNL1        0.0278
     31 H          -6.2683    2.9682   -6.2177 H       1  UNL1        0.0278
     32 H          -5.5138    1.7088   -7.2368 H       1  UNL1        0.0278
     33 H          -2.9415    2.9066   -5.2219 H       1  UNL1        0.0621
     34 H          -2.0977    1.9157   -3.1714 H       1  UNL1        0.0637
     35 H          -3.5469    2.2444    0.1688 H       1  UNL1        0.1737
     36 H          -4.9213    0.0757    2.0345 H       1  UNL1        0.0511
     37 H          -6.2420   -0.9529    1.2425 H       1  UNL1        0.0511
     38 H          -6.7229    0.5623    3.5996 H       1  UNL1        0.1464
     39 H          -4.9955   -3.4263    5.0633 H       1  UNL1        0.0848
     40 H          -7.1290   -5.1252    6.7933 H       1  UNL1        0.0639
     41 H          -9.4414   -5.2191    7.6246 H       1  UNL1        0.0618
     42 H         -10.8552   -3.1642    7.5055 H       1  UNL1        0.0618
     43 H          -9.8919   -1.0202    6.6733 H       1  UNL1        0.0624
     44 H          -8.0452   -0.1326    5.2079 H       1  UNL1        0.0643
     45 H          -8.4977    0.9389    1.3457 H       1  UNL1        0.0621
     46 H          -9.3562    2.6464   -0.1882 H       1  UNL1        0.0618
     47 H          -7.8154    3.9012   -1.6683 H       1  UNL1        0.0618
     48 H          -5.4053    3.4093   -1.5755 H       1  UNL1        0.0637
     49 H          -5.6724   -0.4853   -2.8667 H       1  UNL1        0.0637
     50 H          -6.4879    0.4758   -4.9639 H       1  UNL1        0.0621
@<TRIPOS>BOND
     1     1     2    1
     2     2     3   ar
     3     3     4   ar
     4     4     5   ar
     5     5     6    1
     6     6     7    2
     7     6     8    2
     8     6     9    1
     9     9    10    1
    10    10    11   ar
    11    11    12    1
    12    12    13    1
    13    13    14    1
    14    14    15   ar
    15    15    16   ar
    16    16    17   ar
    17    17    18   ar
    18    18    19   ar
    19    19    20   ar
    20    20    21   ar
    21    21    22   ar
    22    17    22   ar
    23    22    23   ar
    24    14    23   ar
    25    11    24   ar
    26    24    25   ar
    27    25    26   ar
    28    26    27   ar
    29    10    27   ar
    30     5    28   ar
    31    28    29   ar
    32     2    29   ar
    33     1    30    1
    34     1    31    1
    35     1    32    1
    36     3    33    1
    37     4    34    1
    38     9    35    1
    39    12    36    1
    40    12    37    1
    41    13    38    1
    42    15    39    1
    43    18    40    1
    44    19    41    1
    45    20    42    1
    46    21    43    1
    47    23    44    1
    48    24    45    1
    49    25    46    1
    50    26    47    1
    51    27    48    1
    52    28    49    1
    53    29    50    1
