@<TRIPOS>MOLECULE
CS102
 50 53 0 0 0
SMALL
GASTEIGER

@<TRIPOS>ATOM
      1 N           1.0218   -2.7895    2.4669 N.pl3   1  UNL1       -0.1866
      2 O           2.0481   -3.0292    1.8046 O.2     1  UNL1       -0.1726
      3 C           0.1037   -1.7636    1.9474 C.ar    1  UNL1        0.0757
      4 C           0.4680   -1.0163    0.8202 C.ar    1  UNL1       -0.0355
      5 C          -0.3447    0.0395    0.4101 C.ar    1  UNL1       -0.0591
      6 C          -1.5295    0.3207    1.0972 C.ar    1  UNL1       -0.0524
      7 C          -1.9363   -0.4659    2.1887 C.ar    1  UNL1        0.0047
      8 C          -1.0955   -1.4963    2.6350 C.ar    1  UNL1       -0.0263
      9 C          -3.1095   -0.0127    2.9961 C.ar    1  UNL1        0.0993
     10 N          -3.5932    1.1971    2.8156 N.ar    1  UNL1       -0.1671
     11 N          -4.0284    1.8035    3.9928 N.ar    1  UNL1       -0.2195
     12 C          -3.5556    1.3125    5.2033 C.ar    1  UNL1        0.2755
     13 O          -3.0623    1.9343    6.1211 O.2     1  UNL1       -0.2655
     14 C          -3.8867   -0.1002    5.2788 C.ar    1  UNL1        0.0501
     15 C          -3.6514   -0.8237    4.1211 C.ar    1  UNL1        0.0150
     16 C          -4.2223   -2.0968    3.9770 C.ar    1  UNL1       -0.0518
     17 C          -5.0679   -2.5635    5.0034 C.ar    1  UNL1       -0.0611
     18 C          -5.3508   -1.7768    6.1302 C.ar    1  UNL1       -0.0610
     19 C          -4.7414   -0.5377    6.2821 C.ar    1  UNL1       -0.0487
     20 C          -5.1154    2.7588    4.0575 C.3     1  UNL1        0.1213
     21 C          -6.4973    2.1005    3.9196 C.2     1  UNL1        0.2347
     22 O          -7.4159    2.3296    4.7091 O.2     1  UNL1       -0.2738
     23 N          -6.6855    1.3550    2.7741 N.am    1  UNL1       -0.3113
     24 C          -7.9696    0.7470    2.4662 C.3     1  UNL1        0.0379
     25 C          -7.9636    0.0381    1.1060 C.3     1  UNL1        0.0742
     26 O          -7.0682   -1.0951    1.1502 O.3     1  UNL1       -0.3750
     27 C          -7.7558   -2.2401    0.6281 C.3     1  UNL1        0.0482
     28 C          -8.9774   -1.7266   -0.0994 C.3     1  UNL1       -0.0271
     29 C          -9.3310   -0.5004    0.7039 C.3     1  UNL1       -0.0231
     30 O           0.7190   -3.3531    3.5209 O.co2   1  UNL1       -0.7770
     31 H           1.3905   -1.2163    0.2803 H       1  UNL1        0.0639
     32 H          -0.0406    0.6682   -0.4234 H       1  UNL1        0.0618
     33 H          -2.1054    1.1977    0.8051 H       1  UNL1        0.0624
     34 H          -1.3207   -2.0379    3.5488 H       1  UNL1        0.0645
     35 H          -4.1231   -2.6691    3.0701 H       1  UNL1        0.0624
     36 H          -5.5767   -3.5208    4.8919 H       1  UNL1        0.0618
     37 H          -6.0889   -2.0999    6.8596 H       1  UNL1        0.0618
     38 H          -5.0208    0.1333    7.0924 H       1  UNL1        0.0625
     39 H          -4.9930    3.5324    3.2975 H       1  UNL1        0.0606
     40 H          -5.0973    3.2216    5.0523 H       1  UNL1        0.0606
     41 H          -5.8494    0.9873    2.3313 H       1  UNL1        0.1488
     42 H          -8.7277    1.5417    2.4755 H       1  UNL1        0.0487
     43 H          -8.2058    0.0424    3.2698 H       1  UNL1        0.0487
     44 H          -7.5828    0.7119    0.3285 H       1  UNL1        0.0611
     45 H          -8.0366   -2.8752    1.4752 H       1  UNL1        0.0560
     46 H          -7.0850   -2.8054   -0.0246 H       1  UNL1        0.0560
     47 H          -9.7831   -2.4640   -0.1500 H       1  UNL1        0.0288
     48 H          -8.7123   -1.4395   -1.1237 H       1  UNL1        0.0288
     49 H          -9.9173   -0.7914    1.5835 H       1  UNL1        0.0291
     50 H          -9.9186    0.2267    0.1349 H       1  UNL1        0.0291
@<TRIPOS>UNITY_ATOM_ATTR
30 1
charge -1
@<TRIPOS>BOND
     1     1     2    2
     2     1     3    1
     3     3     4   ar
     4     4     5   ar
     5     5     6   ar
     6     6     7   ar
     7     7     8   ar
     8     3     8   ar
     9     7     9    1
    10     9    10   ar
    11    10    11   ar
    12    11    12   ar
    13    12    13    2
    14    12    14   ar
    15    14    15   ar
    16     9    15   ar
    17    15    16   ar
    18    16    17   ar
    19    17    18   ar
    20    18    19   ar
    21    14    19   ar
    22    11    20    1
    23    20    21    1
    24    21    22    2
    25    21    23   am
    26    23    24    1
    27    24    25    1
    28    25    26    1
    29    26    27    1
    30    27    28    1
    31    28    29    1
    32    25    29    1
    33     1    30    1
    34     4    31    1
    35     5    32    1
    36     6    33    1
    37     8    34    1
    38    16    35    1
    39    17    36    1
    40    18    37    1
    41    19    38    1
    42    20    39    1
    43    20    40    1
    44    23    41    1
    45    24    42    1
    46    24    43    1
    47    25    44    1
    48    27    45    1
    49    27    46    1
    50    28    47    1
    51    28    48    1
    52    29    49    1
    53    29    50    1
