@<TRIPOS>MOLECULE
CS154
 35 37 0 0 0
SMALL
GASTEIGER

@<TRIPOS>ATOM
      1 N          -1.1669    1.4599   -0.1808 N.am    1  UNL1       -0.2696
      2 C           0.0730    0.7225   -0.0766 C.ar    1  UNL1        0.0395
      3 C           1.3236    1.3572   -0.0447 C.ar    1  UNL1       -0.0400
      4 C           2.5131    0.6248    0.0301 C.ar    1  UNL1       -0.0600
      5 C           2.4768   -0.7613    0.0823 C.ar    1  UNL1       -0.0614
      6 C           1.2484   -1.4143    0.0837 C.ar    1  UNL1       -0.0568
      7 C           0.0451   -0.6878    0.0096 C.ar    1  UNL1       -0.0259
      8 C          -1.2413   -1.4740    0.0417 C.3     1  UNL1       -0.0245
      9 C          -2.4506   -0.6436   -0.3422 C.3     1  UNL1       -0.0327
     10 C          -2.3511    0.7273    0.2956 C.3     1  UNL1        0.0201
     11 C          -1.2254    2.7409   -0.7571 C.2     1  UNL1        0.2412
     12 O          -0.2562    3.3388   -1.2363 O.2     1  UNL1       -0.2732
     13 C          -2.5689    3.4386   -0.8498 C.3     1  UNL1        0.1182
     14 N          -3.2232    3.1421   -2.1120 N.ar    1  UNL1       -0.2605
     15 C          -3.1190    3.8535   -3.2776 C.ar    1  UNL1        0.0282
     16 C          -3.8917    3.1940   -4.2064 C.ar    1  UNL1        0.0027
     17 C          -4.4439    2.1042   -3.4997 C.ar    1  UNL1        0.1846
     18 N          -4.0720    2.0949   -2.2062 N.ar    1  UNL1       -0.1505
     19 N          -5.3116    1.0525   -4.0011 N.pl3   1  UNL1       -0.1658
     20 O          -5.6029    1.1122   -5.2056 O.2     1  UNL1       -0.1710
     21 O          -5.6948    0.1739   -3.2141 O.co2   1  UNL1       -0.7758
     22 H           1.4116    2.4393   -0.0423 H       1  UNL1        0.0636
     23 H           3.4669    1.1472    0.0499 H       1  UNL1        0.0618
     24 H           3.4006   -1.3322    0.1283 H       1  UNL1        0.0618
     25 H           1.2282   -2.5012    0.1358 H       1  UNL1        0.0621
     26 H          -1.3754   -1.8655    1.0579 H       1  UNL1        0.0314
     27 H          -1.1744   -2.3322   -0.6378 H       1  UNL1        0.0314
     28 H          -3.3662   -1.1500   -0.0159 H       1  UNL1        0.0284
     29 H          -2.5061   -0.5409   -1.4327 H       1  UNL1        0.0284
     30 H          -2.2697    0.6538    1.3880 H       1  UNL1        0.0469
     31 H          -3.2796    1.2567    0.0987 H       1  UNL1        0.0469
     32 H          -2.3996    4.5216   -0.8141 H       1  UNL1        0.0605
     33 H          -3.2422    3.2171   -0.0207 H       1  UNL1        0.0605
     34 H          -2.4937    4.7337   -3.3531 H       1  UNL1        0.0827
     35 H          -4.0292    3.4480   -5.2486 H       1  UNL1        0.0670
@<TRIPOS>UNITY_ATOM_ATTR
21 1
charge -1
@<TRIPOS>BOND
     1     1     2    1
     2     2     3   ar
     3     3     4   ar
     4     4     5   ar
     5     5     6   ar
     6     6     7   ar
     7     2     7   ar
     8     7     8    1
     9     8     9    1
    10     9    10    1
    11     1    10    1
    12     1    11   am
    13    11    12    2
    14    11    13    1
    15    13    14    1
    16    14    15   ar
    17    15    16   ar
    18    16    17   ar
    19    17    18   ar
    20    14    18   ar
    21    17    19    1
    22    19    20    2
    23    19    21    1
    24     3    22    1
    25     4    23    1
    26     5    24    1
    27     6    25    1
    28     8    26    1
    29     8    27    1
    30     9    28    1
    31     9    29    1
    32    10    30    1
    33    10    31    1
    34    13    32    1
    35    13    33    1
    36    15    34    1
    37    16    35    1
