@<TRIPOS>MOLECULE
CS160
 52 54 0 0 0
SMALL
GASTEIGER

@<TRIPOS>ATOM
      1 N          -3.4157    4.8516    0.4177 N.am    1  UNL1       -0.2931
      2 C          -3.9025    5.8294   -0.5723 C.3     1  UNL1        0.0385
      3 C          -2.7349    6.7013   -1.0651 C.3     1  UNL1        0.0635
      4 O          -2.1128    7.3733    0.0406 O.3     1  UNL1       -0.3767
      5 C          -1.6114    6.4262    1.0043 C.3     1  UNL1        0.0635
      6 C          -2.7297    5.5082    1.5387 C.3     1  UNL1        0.0385
      7 C          -3.5689    3.4537    0.4048 C.2     1  UNL1        0.2485
      8 O          -3.4319    2.7756    1.4199 O.2     1  UNL1       -0.2699
      9 C          -3.8357    2.7296   -0.8840 C.ar    1  UNL1        0.0581
     10 C          -3.2670    3.2699   -2.0552 C.ar    1  UNL1       -0.0478
     11 C          -3.4809    2.7197   -3.3122 C.ar    1  UNL1       -0.0609
     12 C          -4.1620    1.5221   -3.4123 C.ar    1  UNL1       -0.0600
     13 C          -4.6034    0.8789   -2.2527 C.ar    1  UNL1       -0.0397
     14 C          -4.4547    1.4592   -0.9757 C.ar    1  UNL1        0.0456
     15 N          -4.9835    0.7415    0.1433 N.am    1  UNL1       -0.2835
     16 C          -4.7730   -0.6335    0.3035 C.2     1  UNL1        0.2364
     17 O          -4.0144   -1.3022   -0.4007 O.2     1  UNL1       -0.2737
     18 C          -5.5804   -1.3148    1.4171 C.3     1  UNL1        0.1110
     19 N          -4.7164   -1.7896    2.5569 N.pl3   1  UNL1       -0.1988
     20 C          -4.0418   -0.7461    3.2791 C.ar    1  UNL1        0.0515
     21 C          -2.6834   -0.8969    3.5629 C.ar    1  UNL1       -0.0377
     22 C          -1.9852    0.1381    4.1897 C.ar    1  UNL1       -0.0416
     23 C          -2.6537    1.3107    4.5412 C.ar    1  UNL1        0.0411
     24 C          -4.0254    1.4316    4.3331 C.ar    1  UNL1       -0.0416
     25 C          -4.7261    0.3888    3.7271 C.ar    1  UNL1       -0.0377
     26 CL         -1.7818    2.6233    5.2328 Cl      1  UNL1       -0.0835
     27 S          -5.4206   -2.9853    3.5512 S.O2    1  UNL1        0.0430
     28 O          -4.5351   -3.2490    4.6710 O.2     1  UNL1       -0.1553
     29 O          -6.8009   -2.6306    3.7703 O.2     1  UNL1       -0.1553
     30 C          -5.3663   -4.4395    2.5136 C.3     1  UNL1        0.0738
     31 H          -4.6198    6.4698   -0.0442 H       1  UNL1        0.0487
     32 H          -4.4495    5.3614   -1.3913 H       1  UNL1        0.0487
     33 H          -3.0953    7.4603   -1.7660 H       1  UNL1        0.0575
     34 H          -1.9668    6.1162   -1.5837 H       1  UNL1        0.0575
     35 H          -1.1687    7.0019    1.8233 H       1  UNL1        0.0575
     36 H          -0.8123    5.8393    0.5355 H       1  UNL1        0.0575
     37 H          -3.4792    6.1171    2.0587 H       1  UNL1        0.0487
     38 H          -2.3183    4.7830    2.2444 H       1  UNL1        0.0487
     39 H          -2.6167    4.1349   -2.0037 H       1  UNL1        0.0626
     40 H          -3.0965    3.2181   -4.1988 H       1  UNL1        0.0618
     41 H          -4.3242    1.0679   -4.3863 H       1  UNL1        0.0618
     42 H          -5.0928   -0.0857   -2.3663 H       1  UNL1        0.0636
     43 H          -5.1435    1.2818    0.9890 H       1  UNL1        0.1549
     44 H          -6.0699   -2.1739    0.9392 H       1  UNL1        0.0578
     45 H          -6.3785   -0.6535    1.7663 H       1  UNL1        0.0578
     46 H          -2.1603   -1.8087    3.2848 H       1  UNL1        0.0637
     47 H          -0.9221    0.0304    4.3853 H       1  UNL1        0.0633
     48 H          -4.5496    2.3397    4.6141 H       1  UNL1        0.0633
     49 H          -5.7981    0.4894    3.5904 H       1  UNL1        0.0637
     50 H          -4.3312   -4.6694    2.2555 H       1  UNL1        0.0482
     51 H          -5.9728   -4.2824    1.6215 H       1  UNL1        0.0482
     52 H          -5.7899   -5.2698    3.0868 H       1  UNL1        0.0482
@<TRIPOS>BOND
     1     1     2    1
     2     2     3    1
     3     3     4    1
     4     4     5    1
     5     5     6    1
     6     1     6    1
     7     1     7   am
     8     7     8    2
     9     7     9    1
    10     9    10   ar
    11    10    11   ar
    12    11    12   ar
    13    12    13   ar
    14    13    14   ar
    15     9    14   ar
    16    14    15    1
    17    15    16   am
    18    16    17    2
    19    16    18    1
    20    18    19    1
    21    19    20    1
    22    20    21   ar
    23    21    22   ar
    24    22    23   ar
    25    23    24   ar
    26    24    25   ar
    27    20    25   ar
    28    23    26    1
    29    19    27    1
    30    27    28    2
    31    27    29    2
    32    27    30    1
    33     2    31    1
    34     2    32    1
    35     3    33    1
    36     3    34    1
    37     5    35    1
    38     5    36    1
    39     6    37    1
    40     6    38    1
    41    10    39    1
    42    11    40    1
    43    12    41    1
    44    13    42    1
    45    15    43    1
    46    18    44    1
    47    18    45    1
    48    21    46    1
    49    22    47    1
    50    24    48    1
    51    25    49    1
    52    30    50    1
    53    30    51    1
    54    30    52    1
