@<TRIPOS>MOLECULE
CS262
 49 51 0 0 0
SMALL
GASTEIGER

@<TRIPOS>ATOM
      1 O          -2.9714   -0.6127    0.1191 O.2     1  UNL1       -0.2681
      2 C          -1.7738   -0.4432    0.0559 C.2     1  UNL1        0.2688
      3 C          -1.0590    0.9160    0.0067 C.2     1  UNL1        0.1524
      4 N          -1.5868    2.0974    0.0284 N.2     1  UNL1       -0.1767
      5 N          -2.9416    2.1422    0.0931 N.pl3   1  UNL1       -0.2371
      6 C          -3.5916    3.3725    0.2789 C.ar    1  UNL1        0.0484
      7 C          -2.9170    4.5952    0.1548 C.ar    1  UNL1       -0.0373
      8 C          -3.5936    5.8094    0.2866 C.ar    1  UNL1       -0.0336
      9 C          -4.9658    5.8036    0.5357 C.ar    1  UNL1        0.1051
     10 S          -5.8321    7.3366    0.6619 S.O2    1  UNL1        0.0559
     11 O          -7.0689    7.1318    1.3795 O.2     1  UNL1       -0.1533
     12 O          -4.9021    8.3875    1.0036 O.2     1  UNL1       -0.1533
     13 N          -6.2635    7.6006   -0.9385 N.3     1  UNL1       -0.2035
     14 C          -5.6578    4.6007    0.6842 C.ar    1  UNL1       -0.0336
     15 C          -4.9696    3.3924    0.5443 C.ar    1  UNL1       -0.0373
     16 C           0.3708    0.6209   -0.0410 C.ar    1  UNL1        0.0290
     17 C           0.4835   -0.7679   -0.0090 C.ar    1  UNL1        0.0432
     18 N          -0.7641   -1.3839    0.0333 N.am    1  UNL1       -0.2796
     19 C           1.7132   -1.3851   -0.0005 C.ar    1  UNL1       -0.0390
     20 C           2.8444   -0.5563   -0.0210 C.ar    1  UNL1       -0.0460
     21 C           2.7337    0.8593   -0.0556 C.ar    1  UNL1        0.0597
     22 C           1.4666    1.4644   -0.0696 C.ar    1  UNL1       -0.0366
     23 C           4.0000    1.6510    0.0024 C.2     1  UNL1        0.3392
     24 O           5.1019    1.1304    0.0326 O.2     1  UNL1       -0.2450
     25 O           3.7331    2.9747    0.1216 O.3     1  UNL1       -0.4609
     26 C           4.8083    3.7875    0.6242 C.3     1  UNL1        0.0951
     27 C           5.4303    4.6861   -0.4522 C.3     1  UNL1       -0.0123
     28 C           4.3996    5.6288   -1.0756 C.3     1  UNL1       -0.0596
     29 C           6.5727    5.4970    0.1647 C.3     1  UNL1       -0.0596
     30 H          -3.4954    1.2990    0.2729 H       1  UNL1        0.1744
     31 H          -1.8518    4.6034   -0.0619 H       1  UNL1        0.0637
     32 H          -3.0476    6.7428    0.1764 H       1  UNL1        0.0638
     33 H          -7.2784    7.6001   -1.0340 H       1  UNL1        0.1442
     34 H          -5.8045    8.4388   -1.2934 H       1  UNL1        0.1442
     35 H          -6.7256    4.5932    0.8906 H       1  UNL1        0.0638
     36 H          -5.5200    2.4596    0.6419 H       1  UNL1        0.0637
     37 H          -0.9380   -2.3782    0.0736 H       1  UNL1        0.1552
     38 H           1.8160   -2.4632    0.0411 H       1  UNL1        0.0636
     39 H           3.8324   -1.0177    0.0093 H       1  UNL1        0.0626
     40 H           1.3345    2.5410   -0.0785 H       1  UNL1        0.0633
     41 H           5.5828    3.1742    1.1007 H       1  UNL1        0.0700
     42 H           4.3745    4.4051    1.4182 H       1  UNL1        0.0700
     43 H           5.8340    4.0563   -1.2553 H       1  UNL1        0.0328
     44 H           3.9364    6.2678   -0.3153 H       1  UNL1        0.0233
     45 H           3.6075    5.0699   -1.5799 H       1  UNL1        0.0233
     46 H           4.8715    6.2805   -1.8187 H       1  UNL1        0.0233
     47 H           6.2085    6.1378    0.9758 H       1  UNL1        0.0233
     48 H           7.0514    6.1388   -0.5822 H       1  UNL1        0.0233
     49 H           7.3406    4.8352    0.5794 H       1  UNL1        0.0233
@<TRIPOS>BOND
     1     1     2    2
     2     2     3    1
     3     3     4    2
     4     4     5    1
     5     5     6    1
     6     6     7   ar
     7     7     8   ar
     8     8     9   ar
     9     9    10    1
    10    10    11    2
    11    10    12    2
    12    10    13    1
    13     9    14   ar
    14    14    15   ar
    15     6    15   ar
    16     3    16    1
    17    16    17   ar
    18    17    18    1
    19     2    18   am
    20    17    19   ar
    21    19    20   ar
    22    20    21   ar
    23    21    22   ar
    24    16    22   ar
    25    21    23    1
    26    23    24    2
    27    23    25    1
    28    25    26    1
    29    26    27    1
    30    27    28    1
    31    27    29    1
    32     5    30    1
    33     7    31    1
    34     8    32    1
    35    13    33    1
    36    13    34    1
    37    14    35    1
    38    15    36    1
    39    18    37    1
    40    19    38    1
    41    20    39    1
    42    22    40    1
    43    26    41    1
    44    26    42    1
    45    27    43    1
    46    28    44    1
    47    28    45    1
    48    28    46    1
    49    29    47    1
    50    29    48    1
    51    29    49    1
