@<TRIPOS>MOLECULE
CS261
 51 54 0 0 0
SMALL
GASTEIGER

@<TRIPOS>ATOM
      1 O          -3.0090   -0.6482    0.0234 O.2     1  UNL1       -0.2681
      2 C          -1.8071   -0.4753   -0.0023 C.2     1  UNL1        0.2688
      3 C          -1.1056    0.8866   -0.0147 C.2     1  UNL1        0.1524
      4 N          -1.6285    2.0674    0.0486 N.2     1  UNL1       -0.1767
      5 N          -2.9780    2.1230    0.1644 N.pl3   1  UNL1       -0.2371
      6 C          -3.6236    3.3629    0.2753 C.ar    1  UNL1        0.0484
      7 C          -2.9315    4.5778    0.1485 C.ar    1  UNL1       -0.0373
      8 C          -3.5901    5.7996    0.2650 C.ar    1  UNL1       -0.0336
      9 C          -4.9581    5.8160    0.5235 C.ar    1  UNL1        0.1051
     10 S          -5.8040    7.3569    0.7380 S.O2    1  UNL1        0.0559
     11 O          -7.0262    7.1121    1.4811 O.2     1  UNL1       -0.1533
     12 O          -4.8551    8.3624    1.1221 O.2     1  UNL1       -0.1533
     13 N          -6.2384    7.6394   -0.8492 N.3     1  UNL1       -0.2035
     14 C          -5.6737    4.6240    0.6544 C.ar    1  UNL1       -0.0336
     15 C          -5.0045    3.4064    0.5273 C.ar    1  UNL1       -0.0373
     16 C           0.3239    0.5968   -0.0530 C.ar    1  UNL1        0.0289
     17 C           0.4499   -0.7892   -0.0173 C.ar    1  UNL1        0.0432
     18 N          -0.7955   -1.4112   -0.0048 N.am    1  UNL1       -0.2796
     19 C           1.6859   -1.3913    0.0279 C.ar    1  UNL1       -0.0391
     20 C           2.8055   -0.5488    0.0332 C.ar    1  UNL1       -0.0478
     21 C           2.6829    0.8686   -0.0171 C.ar    1  UNL1        0.0374
     22 C           1.4084    1.4530   -0.0585 C.ar    1  UNL1       -0.0384
     23 C           3.9466    1.6641   -0.0182 C.2     1  UNL1        0.2441
     24 O           5.0268    1.0879    0.0392 O.2     1  UNL1       -0.2702
     25 N           3.8482    3.0390   -0.0952 N.am    1  UNL1       -0.3110
     26 C           5.0413    3.8634   -0.0709 C.3     1  UNL1        0.0173
     27 C           4.7533    5.3630   -0.1417 C.3     1  UNL1        0.0066
     28 C           3.9410    5.8485    1.0085 C.ar    1  UNL1        0.0603
     29 C           4.3536    6.3259    2.2343 C.ar    1  UNL1        0.0243
     30 N           3.2022    6.6271    2.9095 N.ar    1  UNL1       -0.3506
     31 C           2.1531    6.3258    2.0874 C.ar    1  UNL1        0.0936
     32 N           2.5657    5.8447    0.9371 N.ar    1  UNL1       -0.2408
     33 H          -3.5508    1.2793    0.2513 H       1  UNL1        0.1744
     34 H          -1.8566    4.5645   -0.0333 H       1  UNL1        0.0637
     35 H          -3.0196    6.7251    0.1617 H       1  UNL1        0.0638
     36 H          -7.2143    7.4897   -1.0849 H       1  UNL1        0.1442
     37 H          -5.6842    8.3259   -1.3502 H       1  UNL1        0.1442
     38 H          -6.7390    4.6391    0.8656 H       1  UNL1        0.0638
     39 H          -5.5681    2.4854    0.6475 H       1  UNL1        0.0637
     40 H          -0.9628   -2.4056    0.0205 H       1  UNL1        0.1552
     41 H           1.8040   -2.4686    0.0742 H       1  UNL1        0.0636
     42 H           3.7994   -0.9981    0.0823 H       1  UNL1        0.0626
     43 H           1.2388    2.5219   -0.0778 H       1  UNL1        0.0632
     44 H           2.9574    3.5247   -0.0953 H       1  UNL1        0.1490
     45 H           5.6531    3.5645   -0.9292 H       1  UNL1        0.0466
     46 H           5.6076    3.6176    0.8375 H       1  UNL1        0.0466
     47 H           4.2235    5.5923   -1.0741 H       1  UNL1        0.0344
     48 H           5.7027    5.9107   -0.1744 H       1  UNL1        0.0344
     49 H           5.3309    6.4707    2.6736 H       1  UNL1        0.0825
     50 H           3.1330    7.0030    3.8449 H       1  UNL1        0.1662
     51 H           1.1235    6.4754    2.3833 H       1  UNL1        0.1027
@<TRIPOS>BOND
     1     1     2    2
     2     2     3    1
     3     3     4    2
     4     4     5    1
     5     5     6    1
     6     6     7   ar
     7     7     8   ar
     8     8     9   ar
     9     9    10    1
    10    10    11    2
    11    10    12    2
    12    10    13    1
    13     9    14   ar
    14    14    15   ar
    15     6    15   ar
    16     3    16    1
    17    16    17   ar
    18    17    18    1
    19     2    18   am
    20    17    19   ar
    21    19    20   ar
    22    20    21   ar
    23    21    22   ar
    24    16    22   ar
    25    21    23    1
    26    23    24    2
    27    23    25   am
    28    25    26    1
    29    26    27    1
    30    27    28    1
    31    28    29   ar
    32    29    30   ar
    33    30    31   ar
    34    31    32   ar
    35    28    32   ar
    36     5    33    1
    37     7    34    1
    38     8    35    1
    39    13    36    1
    40    13    37    1
    41    14    38    1
    42    15    39    1
    43    18    40    1
    44    19    41    1
    45    20    42    1
    46    22    43    1
    47    25    44    1
    48    26    45    1
    49    26    46    1
    50    27    47    1
    51    27    48    1
    52    29    49    1
    53    30    50    1
    54    31    51    1
