@<TRIPOS>MOLECULE
CS47
 47 49 0 0 0
SMALL
GASTEIGER

@<TRIPOS>ATOM
      1 C          -2.0312   -0.8851   -1.2848 C.3     1  UNL1        0.0157
      2 N          -0.9735   -0.3945   -0.4409 N.ar    1  UNL1       -0.3052
      3 C           0.1477   -1.0683   -0.0361 C.ar    1  UNL1        0.1921
      4 S           0.4063   -2.7545   -0.3147 S.3     1  UNL1       -0.0767
      5 C           2.2076   -2.8860   -0.1341 C.3     1  UNL1        0.0779
      6 C           2.6406   -4.3423   -0.2267 C.2     1  UNL1        0.2276
      7 O           3.4324   -4.7149   -1.0919 O.2     1  UNL1       -0.2746
      8 N           2.0703   -5.1768    0.7294 N.am    1  UNL1       -0.2819
      9 C           2.3159   -6.5681    0.7607 C.ar    1  UNL1        0.0772
     10 C           3.6431   -7.0187    0.7182 C.ar    1  UNL1       -0.0150
     11 C           3.9701   -8.3817    0.8196 C.ar    1  UNL1        0.0845
     12 CL          5.6654   -8.7203    0.8572 Cl      1  UNL1       -0.0797
     13 C           2.9502   -9.3319    0.9222 C.ar    1  UNL1        0.1419
     14 O           3.0034  -10.6958    0.9959 O.3     1  UNL1       -0.4935
     15 C           4.2444  -11.3779    0.9467 C.3     1  UNL1        0.0789
     16 C           1.6225   -8.8690    0.9776 C.ar    1  UNL1        0.0251
     17 C           1.2922   -7.5066    0.9191 C.ar    1  UNL1        0.1447
     18 O          -0.0454   -7.2576    1.0683 O.3     1  UNL1       -0.4931
     19 C          -0.6287   -6.2943    0.1995 C.3     1  UNL1        0.0789
     20 N           0.9490   -0.2614    0.6067 N.ar    1  UNL1       -0.1222
     21 N           0.3438    0.9751    0.6465 N.ar    1  UNL1       -0.1283
     22 C          -0.8363    0.8935    0.0470 C.ar    1  UNL1        0.1646
     23 C          -1.7774    2.0171   -0.1178 C.ar    1  UNL1        0.0193
     24 C          -1.2732    3.3113   -0.2925 C.ar    1  UNL1       -0.0510
     25 C          -2.1330    4.4004   -0.4688 C.ar    1  UNL1       -0.0611
     26 C          -3.5112    4.2079   -0.4712 C.ar    1  UNL1       -0.0617
     27 C          -4.0317    2.9321   -0.2654 C.ar    1  UNL1       -0.0611
     28 C          -3.1706    1.8490   -0.0660 C.ar    1  UNL1       -0.0510
     29 H          -1.7954   -1.8739   -1.6803 H       1  UNL1        0.0457
     30 H          -2.1558   -0.1985   -2.1264 H       1  UNL1        0.0457
     31 H          -2.9461   -0.9612   -0.6958 H       1  UNL1        0.0457
     32 H           2.5533   -2.4795    0.8195 H       1  UNL1        0.0475
     33 H           2.6833   -2.3346   -0.9521 H       1  UNL1        0.0475
     34 H           1.2181   -4.8458    1.1627 H       1  UNL1        0.1549
     35 H           4.4506   -6.2900    0.6601 H       1  UNL1        0.0653
     36 H           4.0316  -12.4519    0.9578 H       1  UNL1        0.0660
     37 H           4.8436  -11.1641    1.8364 H       1  UNL1        0.0660
     38 H           4.7826  -11.1722    0.0169 H       1  UNL1        0.0660
     39 H           0.8180   -9.5989    1.0650 H       1  UNL1        0.0692
     40 H          -1.6708   -6.5754    0.0289 H       1  UNL1        0.0660
     41 H          -0.1299   -6.2272   -0.7722 H       1  UNL1        0.0660
     42 H          -0.6553   -5.3270    0.7052 H       1  UNL1        0.0660
     43 H          -0.1993    3.4849   -0.2863 H       1  UNL1        0.0625
     44 H          -1.7250    5.4008   -0.6015 H       1  UNL1        0.0618
     45 H          -4.1808    5.0523   -0.6150 H       1  UNL1        0.0618
     46 H          -5.1075    2.7807   -0.2463 H       1  UNL1        0.0618
     47 H          -3.6158    0.8856    0.1474 H       1  UNL1        0.0625
@<TRIPOS>BOND
     1     1     2    1
     2     2     3   ar
     3     3     4    1
     4     4     5    1
     5     5     6    1
     6     6     7    2
     7     6     8   am
     8     8     9    1
     9     9    10   ar
    10    10    11   ar
    11    11    12    1
    12    11    13   ar
    13    13    14    1
    14    14    15    1
    15    13    16   ar
    16    16    17   ar
    17     9    17   ar
    18    17    18    1
    19    18    19    1
    20     3    20   ar
    21    20    21   ar
    22    21    22   ar
    23     2    22   ar
    24    22    23    1
    25    23    24   ar
    26    24    25   ar
    27    25    26   ar
    28    26    27   ar
    29    27    28   ar
    30    23    28   ar
    31     1    29    1
    32     1    30    1
    33     1    31    1
    34     5    32    1
    35     5    33    1
    36     8    34    1
    37    10    35    1
    38    15    36    1
    39    15    37    1
    40    15    38    1
    41    16    39    1
    42    19    40    1
    43    19    41    1
    44    19    42    1
    45    24    43    1
    46    25    44    1
    47    26    45    1
    48    27    46    1
    49    28    47    1
