@<TRIPOS>MOLECULE
CS49
 53 56 0 0 0
SMALL
GASTEIGER

@<TRIPOS>ATOM
      1 O         -11.8594    2.0454    0.1793 O.3     1  UNL1       -0.4922
      2 C         -10.8266    1.9838    1.0802 C.ar    1  UNL1        0.1217
      3 C         -10.3841    3.0429    1.8673 C.ar    1  UNL1       -0.0179
      4 C          -9.3148    2.8736    2.7557 C.ar    1  UNL1       -0.0317
      5 C          -8.6795    1.6216    2.8698 C.ar    1  UNL1        0.0797
      6 C          -9.1408    0.5666    2.0859 C.ar    1  UNL1        0.0435
      7 C         -10.2046    0.7300    1.1768 C.ar    1  UNL1       -0.0041
      8 S          -8.2139   -0.8399    2.4578 S.2     1  UNL1       -0.0608
      9 C          -7.3208    0.0523    3.6185 C.ar    1  UNL1        0.1362
     10 N          -7.6245    1.3220    3.7183 N.ar    1  UNL1       -0.2327
     11 S          -6.0993   -0.6971    4.6292 S.3     1  UNL1       -0.0894
     12 C          -5.5817    0.6703    5.7053 C.3     1  UNL1        0.0770
     13 C          -6.6940    1.2635    6.5556 C.2     1  UNL1        0.2276
     14 O          -6.6761    2.4583    6.8596 O.2     1  UNL1       -0.2746
     15 N          -7.6163    0.3711    7.0716 N.am    1  UNL1       -0.2791
     16 C          -8.7244    0.7579    7.7898 C.ar    1  UNL1        0.1213
     17 C          -9.6521    1.6972    7.5325 C.ar    1  UNL1        0.0594
     18 N         -10.6778    1.7004    8.4862 N.ar    1  UNL1       -0.2823
     19 N         -10.2322    0.8620    9.5316 N.ar    1  UNL1       -0.2156
     20 C          -9.0991    0.1655    9.1034 C.ar    1  UNL1        0.2934
     21 O          -8.4719   -0.7426    9.6393 O.2     1  UNL1       -0.2638
     22 C         -10.9771    0.5996   10.6914 C.ar    1  UNL1        0.0674
     23 C         -10.3577    0.7163   11.9409 C.ar    1  UNL1       -0.0362
     24 C         -11.0857    0.4970   13.1135 C.ar    1  UNL1       -0.0598
     25 C         -12.4253    0.1182   13.0430 C.ar    1  UNL1       -0.0616
     26 C         -13.0448   -0.0108   11.8007 C.ar    1  UNL1       -0.0598
     27 C         -12.3301    0.2526   10.6275 C.ar    1  UNL1       -0.0362
     28 C         -11.4363    2.8979    8.8370 C.3     1  UNL1        0.0292
     29 C          -9.7151    2.6015    6.3477 C.3     1  UNL1       -0.0208
     30 C         -12.5644    3.2856    0.0867 C.3     1  UNL1        0.0868
     31 C         -13.6853    3.1329   -0.9261 C.3     1  UNL1       -0.0307
     32 H         -10.8442    4.0253    1.8210 H       1  UNL1        0.0655
     33 H          -8.9800    3.6993    3.3759 H       1  UNL1        0.0640
     34 H         -10.5458   -0.1006    0.5658 H       1  UNL1        0.0666
     35 H          -5.1443    1.4676    5.0943 H       1  UNL1        0.0475
     36 H          -4.8012    0.3031    6.3808 H       1  UNL1        0.0475
     37 H          -7.2933   -0.5777    7.2336 H       1  UNL1        0.1550
     38 H          -9.3194    1.0306   12.0108 H       1  UNL1        0.0639
     39 H         -10.6067    0.6239   14.0813 H       1  UNL1        0.0618
     40 H         -12.9844   -0.0751   13.9562 H       1  UNL1        0.0618
     41 H         -14.0845   -0.3243   11.7450 H       1  UNL1        0.0618
     42 H         -12.8192    0.1361    9.6644 H       1  UNL1        0.0639
     43 H         -11.4150    3.6432    8.0375 H       1  UNL1        0.0472
     44 H         -11.0457    3.3730    9.7429 H       1  UNL1        0.0472
     45 H         -12.4885    2.6391    8.9888 H       1  UNL1        0.0472
     46 H          -9.0403    2.2740    5.5614 H       1  UNL1        0.0293
     47 H          -9.4328    3.6213    6.6266 H       1  UNL1        0.0293
     48 H         -10.7234    2.6182    5.9199 H       1  UNL1        0.0293
     49 H         -11.8891    4.0810   -0.2499 H       1  UNL1        0.0694
     50 H         -13.0004    3.5481    1.0578 H       1  UNL1        0.0694
     51 H         -13.2890    2.8309   -1.9008 H       1  UNL1        0.0262
     52 H         -14.2328    4.0731   -1.0434 H       1  UNL1        0.0262
     53 H         -14.3876    2.3552   -0.6093 H       1  UNL1        0.0262
@<TRIPOS>BOND
     1     1     2    1
     2     2     3   ar
     3     3     4   ar
     4     4     5   ar
     5     5     6   ar
     6     6     7   ar
     7     2     7   ar
     8     6     8   ar
     9     8     9   ar
    10     9    10   ar
    11     5    10   ar
    12     9    11    1
    13    11    12    1
    14    12    13    1
    15    13    14    2
    16    13    15   am
    17    15    16    1
    18    16    17   ar
    19    17    18   ar
    20    18    19   ar
    21    19    20   ar
    22    16    20   ar
    23    20    21    2
    24    19    22    1
    25    22    23   ar
    26    23    24   ar
    27    24    25   ar
    28    25    26   ar
    29    26    27   ar
    30    22    27   ar
    31    18    28    1
    32    17    29    1
    33     1    30    1
    34    30    31    1
    35     3    32    1
    36     4    33    1
    37     7    34    1
    38    12    35    1
    39    12    36    1
    40    15    37    1
    41    23    38    1
    42    24    39    1
    43    25    40    1
    44    26    41    1
    45    27    42    1
    46    28    43    1
    47    28    44    1
    48    28    45    1
    49    29    46    1
    50    29    47    1
    51    29    48    1
    52    30    49    1
    53    30    50    1
    54    31    51    1
    55    31    52    1
    56    31    53    1
