@<TRIPOS>MOLECULE
CS5
 39 41 0 0 0
SMALL
GASTEIGER

@<TRIPOS>ATOM
      1 BR         -1.4416   -0.0656   -1.0187 Br      1  UNL1       -0.0503
      2 C           0.4455   -0.0922   -0.8981 C.ar    1  UNL1        0.0179
      3 C           1.1280   -1.3024   -0.9839 C.ar    1  UNL1       -0.0470
      4 C           2.5214   -1.3406   -0.8583 C.ar    1  UNL1       -0.0486
      5 C           3.2324   -0.1433   -0.6527 C.ar    1  UNL1        0.0371
      6 C           2.5312    1.0694   -0.6030 C.ar    1  UNL1       -0.0486
      7 C           1.1400    1.0967   -0.7173 C.ar    1  UNL1       -0.0470
      8 C           4.7077   -0.0779   -0.4575 C.2     1  UNL1        0.2494
      9 O           5.2820    0.9824   -0.7216 O.2     1  UNL1       -0.2698
     10 N           5.3315   -1.2192    0.0011 N.am    1  UNL1       -0.2649
     11 C           6.6993   -1.2418    0.1788 C.ar    1  UNL1        0.1471
     12 N           7.4299   -2.2426   -0.3052 N.ar    1  UNL1       -0.1584
     13 N           8.6954   -1.8509   -0.0673 N.ar    1  UNL1       -0.2795
     14 C           8.7807   -0.7631    0.7698 C.ar    1  UNL1        0.0410
     15 C           7.4846   -0.3210    0.9015 C.ar    1  UNL1        0.0011
     16 C          10.0750   -0.2529    1.3304 C.3     1  UNL1        0.0009
     17 C          10.9845    0.2911    0.2197 C.3     1  UNL1       -0.0448
     18 C          12.3461    0.7201    0.7472 C.3     1  UNL1       -0.0525
     19 C          13.0264   -0.3966    1.5291 C.3     1  UNL1       -0.0530
     20 C          12.1463   -0.8807    2.6765 C.3     1  UNL1       -0.0525
     21 C          10.7768   -1.3299    2.1774 C.3     1  UNL1       -0.0448
     22 H           0.5846   -2.2335   -1.1465 H       1  UNL1        0.0629
     23 H           3.0171   -2.2976   -0.9403 H       1  UNL1        0.0625
     24 H           3.0696    2.0059   -0.4606 H       1  UNL1        0.0625
     25 H           0.6164    2.0462   -0.6508 H       1  UNL1        0.0629
     26 H           4.9294   -2.1280   -0.1636 H       1  UNL1        0.1566
     27 H           9.4523   -2.3844   -0.4726 H       1  UNL1        0.1886
     28 H           7.1388    0.5278    1.4777 H       1  UNL1        0.0670
     29 H           9.8386    0.5881    2.0020 H       1  UNL1        0.0364
     30 H          10.5009    1.1403   -0.2794 H       1  UNL1        0.0272
     31 H          11.1347   -0.4747   -0.5539 H       1  UNL1        0.0272
     32 H          12.2334    1.6039    1.3940 H       1  UNL1        0.0265
     33 H          12.9884    1.0241   -0.0904 H       1  UNL1        0.0265
     34 H          13.9878   -0.0505    1.9238 H       1  UNL1        0.0265
     35 H          13.2414   -1.2360    0.8532 H       1  UNL1        0.0265
     36 H          12.0257   -0.0731    3.4116 H       1  UNL1        0.0265
     37 H          12.6374   -1.7101    3.1947 H       1  UNL1        0.0265
     38 H          10.1465   -1.5957    3.0374 H       1  UNL1        0.0272
     39 H          10.9032   -2.2502    1.5941 H       1  UNL1        0.0272
@<TRIPOS>BOND
     1     1     2    1
     2     2     3   ar
     3     3     4   ar
     4     4     5   ar
     5     5     6   ar
     6     6     7   ar
     7     2     7   ar
     8     5     8    1
     9     8     9    2
    10     8    10   am
    11    10    11    1
    12    11    12   ar
    13    12    13   ar
    14    13    14   ar
    15    14    15   ar
    16    11    15   ar
    17    14    16    1
    18    16    17    1
    19    17    18    1
    20    18    19    1
    21    19    20    1
    22    20    21    1
    23    16    21    1
    24     3    22    1
    25     4    23    1
    26     6    24    1
    27     7    25    1
    28    10    26    1
    29    13    27    1
    30    15    28    1
    31    16    29    1
    32    17    30    1
    33    17    31    1
    34    18    32    1
    35    18    33    1
    36    19    34    1
    37    19    35    1
    38    20    36    1
    39    20    37    1
    40    21    38    1
    41    21    39    1
