@<TRIPOS>MOLECULE
CS53
 32 33 0 0 0
SMALL
GASTEIGER

@<TRIPOS>ATOM
      1 N          -3.3148   -3.5181   -4.0968 N.ar    1  UNL1       -0.2233
      2 C          -2.2830   -3.7700   -5.0629 C.3     1  UNL1        0.0346
      3 N          -4.6114   -3.7111   -4.4045 N.ar    1  UNL1       -0.0435
      4 N          -5.2806   -3.4258   -3.2942 N.ar    1  UNL1       -0.0222
      5 N          -4.4253   -3.0599   -2.2825 N.ar    1  UNL1       -0.1015
      6 C          -3.2184   -3.1185   -2.7967 C.ar    1  UNL1        0.2095
      7 S          -1.7320   -2.7952   -1.9878 S.3     1  UNL1       -0.0752
      8 C          -2.2272   -3.0427   -0.2555 C.3     1  UNL1        0.0780
      9 C          -2.4605   -4.5202    0.0204 C.2     1  UNL1        0.2275
     10 O          -1.5124   -5.2507    0.2990 O.2     1  UNL1       -0.2746
     11 N          -3.7819   -4.9131   -0.1220 N.am    1  UNL1       -0.2848
     12 C          -4.2791   -6.2208    0.0578 C.ar    1  UNL1        0.0336
     13 C          -3.5736   -7.2193    0.7264 C.ar    1  UNL1       -0.0370
     14 C          -4.0798   -8.5192    0.8175 C.ar    1  UNL1       -0.0182
     15 C          -5.3074   -8.8373    0.2427 C.ar    1  UNL1        0.1202
     16 C          -6.0420   -7.8296   -0.3856 C.ar    1  UNL1       -0.0182
     17 C          -5.5379   -6.5245   -0.4712 C.ar    1  UNL1       -0.0370
     18 O          -5.8819  -10.0784    0.2270 O.3     1  UNL1       -0.4951
     19 C          -5.1184  -11.1355    0.7996 C.3     1  UNL1        0.0788
     20 H          -2.7333   -4.0792   -6.0092 H       1  UNL1        0.0474
     21 H          -1.6370   -4.5682   -4.6866 H       1  UNL1        0.0474
     22 H          -1.7108   -2.8507   -5.2136 H       1  UNL1        0.0474
     23 H          -3.1062   -2.4445    0.0036 H       1  UNL1        0.0475
     24 H          -1.4087   -2.7091    0.3924 H       1  UNL1        0.0475
     25 H          -4.4090   -4.2576   -0.5858 H       1  UNL1        0.1548
     26 H          -2.6158   -7.0195    1.1957 H       1  UNL1        0.0637
     27 H          -3.4792   -9.2556    1.3385 H       1  UNL1        0.0655
     28 H          -7.0077   -8.0625   -0.8269 H       1  UNL1        0.0655
     29 H          -6.1279   -5.7706   -0.9851 H       1  UNL1        0.0637
     30 H          -5.6620  -12.0708    0.6370 H       1  UNL1        0.0660
     31 H          -5.0103  -10.9934    1.8799 H       1  UNL1        0.0660
     32 H          -4.1408  -11.2344    0.3149 H       1  UNL1        0.0660
@<TRIPOS>BOND
     1     1     2    1
     2     1     3   ar
     3     3     4   ar
     4     4     5   ar
     5     5     6   ar
     6     1     6   ar
     7     6     7    1
     8     7     8    1
     9     8     9    1
    10     9    10    2
    11     9    11   am
    12    11    12    1
    13    12    13   ar
    14    13    14   ar
    15    14    15   ar
    16    15    16   ar
    17    16    17   ar
    18    12    17   ar
    19    15    18    1
    20    18    19    1
    21     2    20    1
    22     2    21    1
    23     2    22    1
    24     8    23    1
    25     8    24    1
    26    11    25    1
    27    13    26    1
    28    14    27    1
    29    16    28    1
    30    17    29    1
    31    19    30    1
    32    19    31    1
    33    19    32    1
