@<TRIPOS>MOLECULE
CS55
 39 40 0 0 0
SMALL
GASTEIGER

@<TRIPOS>ATOM
      1 O           1.1256    0.5514   -0.5695 O.2     1  UNL1       -0.2924
      2 C           2.1602    0.1394   -0.0500 C.2     1  UNL1        0.1601
      3 C           2.6753    0.7300    1.2368 C.3     1  UNL1       -0.0014
      4 C           2.9289   -0.9675   -0.6945 C.ar    1  UNL1        0.0176
      5 C           2.4636   -1.4981   -1.8985 C.ar    1  UNL1       -0.0478
      6 C           3.1403   -2.5544   -2.5146 C.ar    1  UNL1       -0.0190
      7 C           4.3026   -3.0843   -1.9455 C.ar    1  UNL1        0.1240
      8 C           4.8068   -2.5359   -0.7492 C.ar    1  UNL1       -0.0004
      9 C           6.1204   -3.0072   -0.1426 C.3     1  UNL1        0.0112
     10 C           7.3178   -2.2206   -0.5991 C.ar    1  UNL1        0.0796
     11 C           7.7806   -1.0495   -0.0375 C.ar    1  UNL1        0.2240
     12 O           7.2185   -0.4685    1.0602 O.3     1  UNL1       -0.4920
     13 N           8.8280   -0.3472   -0.4998 N.ar    1  UNL1       -0.1794
     14 C           9.4536   -0.8292   -1.5691 C.ar    1  UNL1        0.2188
     15 N          10.4986   -0.0918   -2.0905 N.pl3   1  UNL1       -0.3273
     16 N           9.1113   -1.9443   -2.2058 N.ar    1  UNL1       -0.1794
     17 C           8.0681   -2.6019   -1.6879 C.ar    1  UNL1        0.2240
     18 O           7.8136   -3.7540   -2.3548 O.3     1  UNL1       -0.4920
     19 C           4.0946   -1.4912   -0.1254 C.ar    1  UNL1       -0.0443
     20 O           4.9591   -4.1787   -2.4398 O.3     1  UNL1       -0.4920
     21 C           4.8122   -4.4635   -3.8305 C.3     1  UNL1        0.0868
     22 C           5.5941   -5.7283   -4.1429 C.3     1  UNL1       -0.0307
     23 H           2.0042    1.5302    1.5598 H       1  UNL1        0.0309
     24 H           3.6684    1.1609    1.0864 H       1  UNL1        0.0309
     25 H           2.6948   -0.0316    2.0203 H       1  UNL1        0.0309
     26 H           1.5599   -1.1024   -2.3597 H       1  UNL1        0.0626
     27 H           2.7127   -2.9540   -3.4274 H       1  UNL1        0.0654
     28 H           6.2675   -4.0775   -0.3346 H       1  UNL1        0.0366
     29 H           6.0440   -2.9641    0.9522 H       1  UNL1        0.0366
     30 H           6.4963   -1.0158    1.3846 H       1  UNL1        0.2937
     31 H          10.4042    0.8690   -1.7843 H       1  UNL1        0.1452
     32 H          10.5778   -0.2550   -3.0842 H       1  UNL1        0.1452
     33 H           8.5027   -3.7162   -3.0416 H       1  UNL1        0.2937
     34 H           4.4544   -1.0970    0.8177 H       1  UNL1        0.0628
     35 H           5.2049   -3.6293   -4.4231 H       1  UNL1        0.0694
     36 H           3.7651   -4.6480   -4.0885 H       1  UNL1        0.0694
     37 H           6.6626   -5.5870   -3.9565 H       1  UNL1        0.0262
     38 H           5.4583   -6.0199   -5.1883 H       1  UNL1        0.0262
     39 H           5.2647   -6.5522   -3.5007 H       1  UNL1        0.0262
@<TRIPOS>BOND
     1     1     2    2
     2     2     3    1
     3     2     4    1
     4     4     5   ar
     5     5     6   ar
     6     6     7   ar
     7     7     8   ar
     8     8     9    1
     9     9    10    1
    10    10    11   ar
    11    11    12    1
    12    11    13   ar
    13    13    14   ar
    14    14    15    1
    15    14    16   ar
    16    16    17   ar
    17    10    17   ar
    18    17    18    1
    19     8    19   ar
    20     4    19   ar
    21     7    20    1
    22    20    21    1
    23    21    22    1
    24     3    23    1
    25     3    24    1
    26     3    25    1
    27     5    26    1
    28     6    27    1
    29     9    28    1
    30     9    29    1
    31    12    30    1
    32    15    31    1
    33    15    32    1
    34    18    33    1
    35    19    34    1
    36    21    35    1
    37    21    36    1
    38    22    37    1
    39    22    38    1
    40    22    39    1
