@<TRIPOS>MOLECULE
CS58
 49 52 0 0 0
SMALL
GASTEIGER

@<TRIPOS>ATOM
      1 O           1.6443    0.7201    0.2449 O.2     1  UNL1       -0.1726
      2 N           2.3327   -0.2986    0.0810 N.pl3   1  UNL1       -0.1866
      3 O           2.5350   -1.1558    0.9541 O.co2   1  UNL1       -0.7770
      4 C           2.9626   -0.4940   -1.2296 C.ar    1  UNL1        0.0752
      5 C           2.7110    0.4200   -2.2579 C.ar    1  UNL1       -0.0349
      6 C           3.3418    0.2552   -3.4962 C.ar    1  UNL1       -0.0490
      7 C           4.2994   -0.7557   -3.7029 C.ar    1  UNL1        0.0197
      8 C           4.4892   -1.7014   -2.6764 C.ar    1  UNL1       -0.0490
      9 C           3.8247   -1.5774   -1.4480 C.ar    1  UNL1       -0.0349
     10 C           5.1456   -0.7916   -4.9145 C.ar    1  UNL1        0.1694
     11 N           5.7148    0.3061   -5.5743 N.ar    1  UNL1       -0.2703
     12 C           5.7125    1.6731   -5.1477 C.ar    1  UNL1        0.0505
     13 C           5.7909    1.9890   -3.7819 C.ar    1  UNL1       -0.0377
     14 C           5.6785    3.3094   -3.3492 C.ar    1  UNL1       -0.0598
     15 C           5.5770    4.3389   -4.2780 C.ar    1  UNL1       -0.0616
     16 C           5.5530    4.0443   -5.6407 C.ar    1  UNL1       -0.0598
     17 C           5.5923    2.7188   -6.0736 C.ar    1  UNL1       -0.0377
     18 C           6.3209   -0.2437   -6.7025 C.ar    1  UNL1        0.1968
     19 N           6.2152   -1.5517   -6.6764 N.ar    1  UNL1       -0.1218
     20 N           5.4961   -1.8959   -5.5538 N.ar    1  UNL1       -0.1279
     21 S           7.3389    0.6557   -7.7861 S.3     1  UNL1       -0.0763
     22 C           7.3943   -0.3076   -9.3062 C.3     1  UNL1        0.0778
     23 C           6.0796   -0.4487  -10.0599 C.2     1  UNL1        0.2260
     24 O           4.9967   -0.0906   -9.5877 O.2     1  UNL1       -0.2747
     25 N           6.1749   -0.9821  -11.3506 N.am    1  UNL1       -0.2964
     26 C           7.3995   -1.5166  -11.9656 C.3     1  UNL1        0.0382
     27 C           7.4437   -1.2258  -13.4727 C.3     1  UNL1        0.0635
     28 O           6.2478   -1.6651  -14.1294 O.3     1  UNL1       -0.3767
     29 C           5.0980   -1.0060  -13.5740 C.3     1  UNL1        0.0635
     30 C           4.9522   -1.3263  -12.0833 C.3     1  UNL1        0.0382
     31 H           2.0587    1.2771   -2.1080 H       1  UNL1        0.0639
     32 H           3.1271    0.9827   -4.2802 H       1  UNL1        0.0625
     33 H           5.1890   -2.5217   -2.8208 H       1  UNL1        0.0625
     34 H           4.0152   -2.3101   -0.6658 H       1  UNL1        0.0639
     35 H           5.9238    1.2216   -3.0227 H       1  UNL1        0.0638
     36 H           5.6779    3.5338   -2.2845 H       1  UNL1        0.0618
     37 H           5.5166    5.3717   -3.9439 H       1  UNL1        0.0618
     38 H           5.4870    4.8485   -6.3675 H       1  UNL1        0.0618
     39 H           5.4807    2.5355   -7.1400 H       1  UNL1        0.0638
     40 H           7.8311   -1.2921   -9.1229 H       1  UNL1        0.0475
     41 H           8.0673    0.2696   -9.9505 H       1  UNL1        0.0475
     42 H           7.3832   -2.5988  -11.7947 H       1  UNL1        0.0487
     43 H           8.3000   -1.1165  -11.4974 H       1  UNL1        0.0487
     44 H           8.2881   -1.7523  -13.9288 H       1  UNL1        0.0575
     45 H           7.5787   -0.1541  -13.6625 H       1  UNL1        0.0575
     46 H           4.2186   -1.3513  -14.1255 H       1  UNL1        0.0575
     47 H           5.1944    0.0742  -13.7350 H       1  UNL1        0.0575
     48 H           4.8154   -2.4103  -11.9561 H       1  UNL1        0.0487
     49 H           4.0754   -0.8256  -11.6670 H       1  UNL1        0.0487
@<TRIPOS>UNITY_ATOM_ATTR
3 1
charge -1
@<TRIPOS>BOND
     1     1     2    2
     2     2     3    1
     3     2     4    1
     4     4     5   ar
     5     5     6   ar
     6     6     7   ar
     7     7     8   ar
     8     8     9   ar
     9     4     9   ar
    10     7    10    1
    11    10    11   ar
    12    11    12    1
    13    12    13   ar
    14    13    14   ar
    15    14    15   ar
    16    15    16   ar
    17    16    17   ar
    18    12    17   ar
    19    11    18   ar
    20    18    19   ar
    21    19    20   ar
    22    10    20   ar
    23    18    21    1
    24    21    22    1
    25    22    23    1
    26    23    24    2
    27    23    25   am
    28    25    26    1
    29    26    27    1
    30    27    28    1
    31    28    29    1
    32    29    30    1
    33    25    30    1
    34     5    31    1
    35     6    32    1
    36     8    33    1
    37     9    34    1
    38    13    35    1
    39    14    36    1
    40    15    37    1
    41    16    38    1
    42    17    39    1
    43    22    40    1
    44    22    41    1
    45    26    42    1
    46    26    43    1
    47    27    44    1
    48    27    45    1
    49    29    46    1
    50    29    47    1
    51    30    48    1
    52    30    49    1
