@<TRIPOS>MOLECULE
CS59
 52 54 0 0 0
SMALL
GASTEIGER

@<TRIPOS>ATOM
      1 N           0.8541    0.0361   -0.0737 N.ar    1  UNL1       -0.3052
      2 C           2.2952    0.0696   -0.1172 C.3     1  UNL1        0.0157
      3 C           0.0188   -1.0661   -0.0070 C.ar    1  UNL1        0.1646
      4 N          -1.2308   -0.6273   -0.0055 N.ar    1  UNL1       -0.1283
      5 N          -1.2192    0.7496    0.0081 N.ar    1  UNL1       -0.1222
      6 C           0.0327    1.1298   -0.0512 C.ar    1  UNL1        0.1921
      7 S           0.6060    2.7596   -0.0333 S.3     1  UNL1       -0.0767
      8 C          -0.2958    3.4314    1.3913 C.3     1  UNL1        0.0779
      9 C           0.2366    2.8357    2.6826 C.2     1  UNL1        0.2275
     10 O           1.2352    3.3081    3.2276 O.2     1  UNL1       -0.2746
     11 N          -0.4723    1.7244    3.1139 N.am    1  UNL1       -0.2848
     12 C          -0.2018    0.9616    4.2690 C.ar    1  UNL1        0.0334
     13 C           0.6035    1.4090    5.3197 C.ar    1  UNL1       -0.0397
     14 C           0.8831    0.5756    6.4092 C.ar    1  UNL1       -0.0460
     15 C           0.3557   -0.7179    6.4639 C.ar    1  UNL1        0.0591
     16 C          -0.4847   -1.1546    5.4307 C.ar    1  UNL1       -0.0460
     17 C          -0.7700   -0.3144    4.3473 C.ar    1  UNL1       -0.0397
     18 C           0.7242   -1.5832    7.6170 C.2     1  UNL1        0.3389
     19 O           1.4513   -1.2288    8.5319 O.2     1  UNL1       -0.2450
     20 O           0.1513   -2.8068    7.4869 O.3     1  UNL1       -0.4645
     21 C           0.4788   -3.7257    8.5391 C.3     1  UNL1        0.0820
     22 C           0.4288   -2.4725    0.0734 C.ar    1  UNL1        0.0194
     23 C           1.5069   -2.8558    0.8745 C.ar    1  UNL1       -0.0493
     24 C           1.9616   -4.1768    0.8975 C.ar    1  UNL1       -0.0398
     25 C           1.3179   -5.1679    0.1629 C.ar    1  UNL1        0.0334
     26 C           0.1833   -4.8121   -0.5797 C.ar    1  UNL1       -0.0398
     27 C          -0.2554   -3.4753   -0.6265 C.ar    1  UNL1       -0.0493
     28 N           1.7535   -6.5118    0.1358 N.am    1  UNL1       -0.2857
     29 C           2.8883   -7.0246    0.7483 C.2     1  UNL1        0.2141
     30 O           3.7046   -6.4043    1.4199 O.2     1  UNL1       -0.2758
     31 C           3.0874   -8.5009    0.5217 C.3     1  UNL1        0.0125
     32 H           2.7030   -0.9089   -0.3695 H       1  UNL1        0.0457
     33 H           2.6563    0.3871    0.8656 H       1  UNL1        0.0457
     34 H           2.6176    0.7708   -0.8901 H       1  UNL1        0.0457
     35 H          -1.3735    3.2743    1.2956 H       1  UNL1        0.0475
     36 H          -0.1266    4.5126    1.4326 H       1  UNL1        0.0475
     37 H          -1.1417    1.3248    2.4582 H       1  UNL1        0.1548
     38 H           1.0263    2.4097    5.3270 H       1  UNL1        0.0636
     39 H           1.5247    0.9434    7.2083 H       1  UNL1        0.0626
     40 H          -0.9161   -2.1528    5.4460 H       1  UNL1        0.0626
     41 H          -1.4138   -0.6879    3.5532 H       1  UNL1        0.0636
     42 H          -0.0414   -4.6634    8.3292 H       1  UNL1        0.0661
     43 H           0.1349   -3.3381    9.4989 H       1  UNL1        0.0661
     44 H           1.5545   -3.9161    8.5484 H       1  UNL1        0.0661
     45 H           2.0261   -2.1340    1.5003 H       1  UNL1        0.0625
     46 H           2.8307   -4.3859    1.5122 H       1  UNL1        0.0636
     47 H          -0.3710   -5.5595   -1.1436 H       1  UNL1        0.0636
     48 H          -1.1317   -3.2238   -1.2240 H       1  UNL1        0.0625
     49 H           1.1958   -7.1510   -0.4181 H       1  UNL1        0.1548
     50 H           2.3131   -8.9363   -0.1132 H       1  UNL1        0.0323
     51 H           3.0755   -9.0078    1.4911 H       1  UNL1        0.0323
     52 H           4.0596   -8.6535    0.0433 H       1  UNL1        0.0323
@<TRIPOS>BOND
     1     1     2    1
     2     1     3   ar
     3     3     4   ar
     4     4     5   ar
     5     5     6   ar
     6     1     6   ar
     7     6     7    1
     8     7     8    1
     9     8     9    1
    10     9    10    2
    11     9    11   am
    12    11    12    1
    13    12    13   ar
    14    13    14   ar
    15    14    15   ar
    16    15    16   ar
    17    16    17   ar
    18    12    17   ar
    19    15    18    1
    20    18    19    2
    21    18    20    1
    22    20    21    1
    23     3    22    1
    24    22    23   ar
    25    23    24   ar
    26    24    25   ar
    27    25    26   ar
    28    26    27   ar
    29    22    27   ar
    30    25    28    1
    31    28    29   am
    32    29    30    2
    33    29    31    1
    34     2    32    1
    35     2    33    1
    36     2    34    1
    37     8    35    1
    38     8    36    1
    39    11    37    1
    40    13    38    1
    41    14    39    1
    42    16    40    1
    43    17    41    1
    44    21    42    1
    45    21    43    1
    46    21    44    1
    47    23    45    1
    48    24    46    1
    49    26    47    1
    50    27    48    1
    51    28    49    1
    52    31    50    1
    53    31    51    1
    54    31    52    1
