@<TRIPOS>MOLECULE
CS64
 38 40 0 0 0
SMALL
GASTEIGER

@<TRIPOS>ATOM
      1 N          -0.2311   -0.2628   -1.0938 N.ar    1  UNL1       -0.3063
      2 C          -0.2344   -0.5594   -2.4998 C.3     1  UNL1        0.0155
      3 C           0.0967   -1.1006   -0.0383 C.ar    1  UNL1        0.1716
      4 N          -0.0027   -0.4222    1.0891 N.ar    1  UNL1       -0.1300
      5 N          -0.3954    0.8606    0.7923 N.ar    1  UNL1       -0.1224
      6 C          -0.5164    0.9592   -0.4983 C.ar    1  UNL1        0.1919
      7 S          -1.0447    2.3993   -1.3237 S.3     1  UNL1       -0.0767
      8 C           0.1671    3.6957   -0.8679 C.3     1  UNL1        0.0774
      9 C           1.5607    3.3819   -1.3502 C.2     1  UNL1        0.2208
     10 O           2.0168    3.7196   -2.4604 O.2     1  UNL1       -0.2751
     11 N           2.3388    2.7209   -0.4597 N.am    1  UNL1       -0.3286
     12 C           0.4752   -2.5505   -0.0916 C.3     1  UNL1        0.1490
     13 O           1.8970   -2.6170   -0.1990 O.3     1  UNL1       -0.4821
     14 C           2.4310   -3.8882   -0.2931 C.ar    1  UNL1        0.1469
     15 C           1.8649   -4.9738    0.3950 C.ar    1  UNL1       -0.0178
     16 C           2.3658   -6.2546    0.2076 C.ar    1  UNL1       -0.0576
     17 C           3.4500   -6.4509   -0.6431 C.ar    1  UNL1       -0.0523
     18 C           4.0444   -5.3666   -1.3114 C.ar    1  UNL1        0.0040
     19 C           3.5481   -4.0543   -1.1385 C.ar    1  UNL1        0.1125
     20 N           4.0917   -3.0133   -1.8177 N.ar    1  UNL1       -0.2513
     21 C           5.1291   -3.2446   -2.6523 C.ar    1  UNL1        0.0284
     22 C           5.6782   -4.4915   -2.8653 C.ar    1  UNL1       -0.0430
     23 C           5.1234   -5.5669   -2.1869 C.ar    1  UNL1       -0.0510
     24 H           0.0855   -1.5781   -2.7241 H       1  UNL1        0.0457
     25 H           0.4655    0.1229   -2.9969 H       1  UNL1        0.0457
     26 H          -1.2570   -0.4397   -2.8748 H       1  UNL1        0.0457
     27 H           0.2124    3.8564    0.2173 H       1  UNL1        0.0475
     28 H          -0.1342    4.6417   -1.3384 H       1  UNL1        0.0475
     29 H           1.9968    2.4147    0.4501 H       1  UNL1        0.1450
     30 H           3.2779    2.4782   -0.7308 H       1  UNL1        0.1450
     31 H          -0.0099   -3.0364   -0.9485 H       1  UNL1        0.0779
     32 H           0.1282   -3.0353    0.8318 H       1  UNL1        0.0779
     33 H           1.0039   -4.8458    1.0383 H       1  UNL1        0.0655
     34 H           1.8933   -7.1002    0.6998 H       1  UNL1        0.0619
     35 H           3.8215   -7.4614   -0.7933 H       1  UNL1        0.0624
     36 H           5.5185   -2.3679   -3.1616 H       1  UNL1        0.0830
     37 H           6.5137   -4.6245   -3.5438 H       1  UNL1        0.0633
     38 H           5.5326   -6.5618   -2.3442 H       1  UNL1        0.0625
@<TRIPOS>BOND
     1     1     2    1
     2     1     3   ar
     3     3     4   ar
     4     4     5   ar
     5     5     6   ar
     6     1     6   ar
     7     6     7    1
     8     7     8    1
     9     8     9    1
    10     9    10    2
    11     9    11   am
    12     3    12    1
    13    12    13    1
    14    13    14    1
    15    14    15   ar
    16    15    16   ar
    17    16    17   ar
    18    17    18   ar
    19    18    19   ar
    20    14    19   ar
    21    19    20   ar
    22    20    21   ar
    23    21    22   ar
    24    22    23   ar
    25    18    23   ar
    26     2    24    1
    27     2    25    1
    28     2    26    1
    29     8    27    1
    30     8    28    1
    31    11    29    1
    32    11    30    1
    33    12    31    1
    34    12    32    1
    35    15    33    1
    36    16    34    1
    37    17    35    1
    38    21    36    1
    39    22    37    1
    40    23    38    1
