@<TRIPOS>MOLECULE
CS65
 52 54 0 0 0
SMALL
GASTEIGER

@<TRIPOS>ATOM
      1 F           7.0363    1.9617    1.6011 F       1  UNL1       -0.1659
      2 C           5.7918    2.4005    1.2659 C.3     1  UNL1        0.4175
      3 C           4.6819    1.7271    2.0413 C.ar    1  UNL1        0.0567
      4 C           4.9495    0.6954    2.9606 C.ar    1  UNL1       -0.0260
      5 C           3.9157   -0.0006    3.6163 C.ar    1  UNL1        0.0706
      6 C           2.5927    0.4057    3.3965 C.ar    1  UNL1        0.0636
      7 C           2.3169    1.4520    2.5013 C.ar    1  UNL1       -0.0410
      8 C           3.3500    2.0998    1.8213 C.ar    1  UNL1       -0.0486
      9 CL          1.2469   -0.3206    4.1924 Cl      1  UNL1       -0.0816
     10 N           4.3265   -1.0722    4.4946 N.pl3   1  UNL1       -0.1928
     11 C           3.9352   -2.4702    4.2164 C.3     1  UNL1        0.1114
     12 C           4.2974   -3.0617    2.8577 C.2     1  UNL1        0.2348
     13 O           3.4726   -3.0650    1.9416 O.2     1  UNL1       -0.2738
     14 N           5.5447   -3.6973    2.7308 N.am    1  UNL1       -0.2977
     15 C           5.7374   -4.4866    1.5044 C.3     1  UNL1        0.0275
     16 C           7.0805   -5.2380    1.4296 C.3     1  UNL1        0.0145
     17 N           8.2553   -4.4078    1.7497 N.3     1  UNL1       -0.3024
     18 C           8.0564   -3.8223    3.0878 C.3     1  UNL1        0.0145
     19 C           6.7388   -3.0402    3.2784 C.3     1  UNL1        0.0275
     20 C           8.4857   -3.3839    0.7298 C.3     1  UNL1       -0.0126
     21 S           4.7175   -0.6827    6.1071 S.O2    1  UNL1        0.0752
     22 O           5.6535   -1.6964    6.5629 O.2     1  UNL1       -0.1498
     23 O           5.0822    0.7139    6.1704 O.2     1  UNL1       -0.1498
     24 C           3.2363   -0.9022    7.0932 C.ar    1  UNL1        0.1087
     25 C           2.9342   -2.1702    7.6102 C.ar    1  UNL1       -0.0351
     26 C           1.9326   -2.3113    8.5749 C.ar    1  UNL1       -0.0599
     27 C           1.2413   -1.1953    9.0401 C.ar    1  UNL1       -0.0616
     28 C           1.5401    0.0693    8.5288 C.ar    1  UNL1       -0.0599
     29 C           2.5396    0.2197    7.5575 C.ar    1  UNL1       -0.0351
     30 F           5.8103    3.7510    1.4301 F       1  UNL1       -0.1659
     31 F           5.6757    2.1909   -0.0760 F       1  UNL1       -0.1659
     32 H           5.9857    0.4253    3.1668 H       1  UNL1        0.0642
     33 H           1.2892    1.7652    2.3206 H       1  UNL1        0.0633
     34 H           3.1128    2.8947    1.1125 H       1  UNL1        0.0623
     35 H           2.8528   -2.5835    4.3295 H       1  UNL1        0.0578
     36 H           4.3671   -3.1440    4.9634 H       1  UNL1        0.0578
     37 H           5.6317   -3.8163    0.6443 H       1  UNL1        0.0477
     38 H           4.9200   -5.2168    1.4453 H       1  UNL1        0.0477
     39 H           7.1990   -5.6926    0.4377 H       1  UNL1        0.0442
     40 H           7.0614   -6.0810    2.1340 H       1  UNL1        0.0442
     41 H           8.9065   -3.1781    3.3461 H       1  UNL1        0.0442
     42 H           8.0828   -4.6447    3.8169 H       1  UNL1        0.0442
     43 H           6.8167   -2.0622    2.7901 H       1  UNL1        0.0477
     44 H           6.5880   -2.8607    4.3449 H       1  UNL1        0.0477
     45 H           8.6463   -3.8501   -0.2492 H       1  UNL1        0.0391
     46 H           9.3930   -2.8145    0.9581 H       1  UNL1        0.0391
     47 H           7.6587   -2.6732    0.6311 H       1  UNL1        0.0391
     48 H           3.5019   -3.0464    7.3115 H       1  UNL1        0.0637
     49 H           1.7148   -3.2944    8.9995 H       1  UNL1        0.0618
     50 H           0.4897   -1.3025    9.8218 H       1  UNL1        0.0618
     51 H           1.0170    0.9426    8.9139 H       1  UNL1        0.0618
     52 H           2.7926    1.2185    7.2126 H       1  UNL1        0.0637
@<TRIPOS>BOND
     1     1     2    1
     2     2     3    1
     3     3     4   ar
     4     4     5   ar
     5     5     6   ar
     6     6     7   ar
     7     7     8   ar
     8     3     8   ar
     9     6     9    1
    10     5    10    1
    11    10    11    1
    12    11    12    1
    13    12    13    2
    14    12    14   am
    15    14    15    1
    16    15    16    1
    17    16    17    1
    18    17    18    1
    19    18    19    1
    20    14    19    1
    21    17    20    1
    22    10    21    1
    23    21    22    2
    24    21    23    2
    25    21    24    1
    26    24    25   ar
    27    25    26   ar
    28    26    27   ar
    29    27    28   ar
    30    28    29   ar
    31    24    29   ar
    32     2    30    1
    33     2    31    1
    34     4    32    1
    35     7    33    1
    36     8    34    1
    37    11    35    1
    38    11    36    1
    39    15    37    1
    40    15    38    1
    41    16    39    1
    42    16    40    1
    43    18    41    1
    44    18    42    1
    45    19    43    1
    46    19    44    1
    47    20    45    1
    48    20    46    1
    49    20    47    1
    50    25    48    1
    51    26    49    1
    52    27    50    1
    53    28    51    1
    54    29    52    1
