@<TRIPOS>MOLECULE
CS66
 46 48 0 0 0
SMALL
GASTEIGER

@<TRIPOS>ATOM
      1 N           3.2190    1.1679    0.2724 N.am    1  UNL1       -0.2848
      2 C           2.5519    2.3560   -0.1054 C.ar    1  UNL1        0.0341
      3 C           1.1757    2.4080   -0.3506 C.ar    1  UNL1       -0.0300
      4 C           0.5694    3.5910   -0.7880 C.ar    1  UNL1        0.0189
      5 C           1.3363    4.7522   -0.9251 C.ar    1  UNL1       -0.0512
      6 C           2.7020    4.7210   -0.6451 C.ar    1  UNL1       -0.0593
      7 C           3.3065    3.5280   -0.2339 C.ar    1  UNL1       -0.0404
      8 C          -0.8781    3.6495   -1.1160 C.2     1  UNL1        0.1602
      9 O          -1.4702    4.7248   -1.0458 O.2     1  UNL1       -0.2924
     10 C          -1.5989    2.3986   -1.5569 C.3     1  UNL1       -0.0014
     11 C           2.7325   -0.1224    0.1292 C.2     1  UNL1        0.2275
     12 O           1.6493   -0.4087   -0.3827 O.2     1  UNL1       -0.2746
     13 C           3.5919   -1.2336    0.7162 C.3     1  UNL1        0.0779
     14 S           5.3771   -0.8953    0.6669 S.3     1  UNL1       -0.0766
     15 C           5.9980   -2.3922    1.2889 C.ar    1  UNL1        0.1923
     16 N           5.2244   -3.3906    1.6391 N.ar    1  UNL1       -0.1221
     17 N           6.0178   -4.4138    2.0572 N.ar    1  UNL1       -0.1283
     18 C           7.2833   -4.0371    1.9883 C.ar    1  UNL1        0.1650
     19 N           7.3178   -2.7306    1.4856 N.ar    1  UNL1       -0.3024
     20 C           8.5405   -2.0032    1.2116 C.3     1  UNL1        0.0243
     21 C           8.5079   -0.5897    0.6514 C.3     1  UNL1       -0.0470
     22 C           8.3941   -4.9353    2.3526 C.ar    1  UNL1        0.0221
     23 C           8.2441   -6.3084    2.1103 C.ar    1  UNL1       -0.0329
     24 C           9.2398   -7.1852    2.5113 C.ar    1  UNL1        0.0282
     25 N          10.3735   -6.7935    3.1243 N.ar    1  UNL1       -0.2632
     26 C          10.4995   -5.4750    3.3694 C.ar    1  UNL1        0.0282
     27 C           9.5501   -4.5238    3.0170 C.ar    1  UNL1       -0.0329
     28 H           4.1974    1.2481    0.5272 H       1  UNL1        0.1548
     29 H           0.5584    1.5347   -0.1743 H       1  UNL1        0.0643
     30 H           0.8714    5.6797   -1.2563 H       1  UNL1        0.0625
     31 H           3.2956    5.6250   -0.7608 H       1  UNL1        0.0618
     32 H           4.3762    3.5286   -0.0404 H       1  UNL1        0.0636
     33 H          -0.9173    1.5731   -1.7722 H       1  UNL1        0.0309
     34 H          -2.1359    2.6164   -2.4846 H       1  UNL1        0.0309
     35 H          -2.3064    2.0926   -0.7823 H       1  UNL1        0.0309
     36 H           3.3928   -2.1368    0.1292 H       1  UNL1        0.0475
     37 H           3.2684   -1.3968    1.7487 H       1  UNL1        0.0475
     38 H           9.1317   -2.6317    0.5347 H       1  UNL1        0.0490
     39 H           9.0683   -1.9294    2.1650 H       1  UNL1        0.0490
     40 H           8.0493   -0.5543   -0.3405 H       1  UNL1        0.0247
     41 H           9.5304   -0.2104    0.5491 H       1  UNL1        0.0247
     42 H           7.9836    0.0945    1.3262 H       1  UNL1        0.0247
     43 H           7.3476   -6.6994    1.6356 H       1  UNL1        0.0640
     44 H           9.1408   -8.2560    2.3554 H       1  UNL1        0.0830
     45 H          11.4087   -5.1907    3.8930 H       1  UNL1        0.0830
     46 H           9.7228   -3.5000    3.3166 H       1  UNL1        0.0640
@<TRIPOS>BOND
     1     1     2    1
     2     2     3   ar
     3     3     4   ar
     4     4     5   ar
     5     5     6   ar
     6     6     7   ar
     7     2     7   ar
     8     4     8    1
     9     8     9    2
    10     8    10    1
    11     1    11   am
    12    11    12    2
    13    11    13    1
    14    13    14    1
    15    14    15    1
    16    15    16   ar
    17    16    17   ar
    18    17    18   ar
    19    18    19   ar
    20    15    19   ar
    21    19    20    1
    22    20    21    1
    23    18    22    1
    24    22    23   ar
    25    23    24   ar
    26    24    25   ar
    27    25    26   ar
    28    26    27   ar
    29    22    27   ar
    30     1    28    1
    31     3    29    1
    32     5    30    1
    33     6    31    1
    34     7    32    1
    35    10    33    1
    36    10    34    1
    37    10    35    1
    38    13    36    1
    39    13    37    1
    40    20    38    1
    41    20    39    1
    42    21    40    1
    43    21    41    1
    44    21    42    1
    45    23    43    1
    46    24    44    1
    47    26    45    1
    48    27    46    1
