@<TRIPOS>MOLECULE
CS67
 56 59 0 0 0
SMALL
GASTEIGER

@<TRIPOS>ATOM
      1 N          -0.3186   -1.3047    0.0426 N.ar    1  UNL1       -0.2703
      2 C          -0.6257   -2.6997    0.1916 C.ar    1  UNL1        0.0505
      3 C          -1.7727   -3.1146    0.8822 C.ar    1  UNL1       -0.0377
      4 C          -2.0851   -4.4744    0.9988 C.ar    1  UNL1       -0.0598
      5 C          -1.2233   -5.4381    0.4913 C.ar    1  UNL1       -0.0616
      6 C          -0.0680   -5.0465   -0.1723 C.ar    1  UNL1       -0.0598
      7 C           0.2128   -3.6889   -0.3484 C.ar    1  UNL1       -0.0377
      8 C           0.9375   -0.6874    0.0176 C.ar    1  UNL1        0.1968
      9 N           0.8160    0.6153   -0.0892 N.ar    1  UNL1       -0.1218
     10 N          -0.5176    0.9030   -0.1278 N.ar    1  UNL1       -0.1279
     11 C          -1.2175   -0.2205   -0.0675 C.ar    1  UNL1        0.1695
     12 C          -2.6985   -0.2317   -0.1437 C.ar    1  UNL1        0.0233
     13 C          -3.4174    0.8032    0.4822 C.ar    1  UNL1       -0.0056
     14 C          -4.8315    0.8411    0.4862 C.ar    1  UNL1        0.1622
     15 C          -5.5388   -0.2073   -0.1221 C.ar    1  UNL1        0.1615
     16 C          -4.8229   -1.2189   -0.7762 C.ar    1  UNL1       -0.0156
     17 C          -3.4245   -1.2062   -0.8276 C.ar    1  UNL1       -0.0473
     18 O          -6.8927   -0.4147   -0.1820 O.3     1  UNL1       -0.4915
     19 C          -7.7699    0.5688    0.3468 C.3     1  UNL1        0.0790
     20 O          -5.5520    1.8514    1.0656 O.3     1  UNL1       -0.4914
     21 C          -4.8525    2.9499    1.6322 C.3     1  UNL1        0.0790
     22 S           2.4583   -1.5177    0.1841 S.3     1  UNL1       -0.0777
     23 C           3.5730   -0.2898    0.8966 C.3     1  UNL1        0.0642
     24 C           3.2893    0.0206    2.3587 C.2     1  UNL1        0.1733
     25 O           2.2984   -0.3849    2.9628 O.2     1  UNL1       -0.2912
     26 C           4.3012    0.8440    3.0988 C.ar    1  UNL1        0.0185
     27 C           5.4836    1.2989    2.5088 C.ar    1  UNL1       -0.0478
     28 C           6.4122    2.0517    3.2433 C.ar    1  UNL1       -0.0193
     29 C           6.1687    2.3583    4.5831 C.ar    1  UNL1        0.1201
     30 C           4.9832    1.9102    5.1758 C.ar    1  UNL1       -0.0193
     31 C           4.0529    1.1595    4.4439 C.ar    1  UNL1       -0.0478
     32 O           6.9861    3.0758    5.4060 O.3     1  UNL1       -0.4951
     33 C           8.1919    3.5731    4.8387 C.3     1  UNL1        0.0788
     34 H          -2.4426   -2.4089    1.3614 H       1  UNL1        0.0638
     35 H          -2.9991   -4.7741    1.5067 H       1  UNL1        0.0618
     36 H          -1.4496   -6.4939    0.6145 H       1  UNL1        0.0618
     37 H           0.6147   -5.7944   -0.5678 H       1  UNL1        0.0618
     38 H           1.0875   -3.4478   -0.9489 H       1  UNL1        0.0638
     39 H          -2.8478    1.5837    0.9764 H       1  UNL1        0.0662
     40 H          -5.3680   -2.0315   -1.2536 H       1  UNL1        0.0655
     41 H          -2.9282   -2.0030   -1.3801 H       1  UNL1        0.0626
     42 H          -8.7934    0.1970    0.2303 H       1  UNL1        0.0660
     43 H          -7.6980    1.5036   -0.2192 H       1  UNL1        0.0660
     44 H          -7.6127    0.7213    1.4188 H       1  UNL1        0.0660
     45 H          -5.5981    3.6807    1.9617 H       1  UNL1        0.0660
     46 H          -4.2121    3.4430    0.8943 H       1  UNL1        0.0660
     47 H          -4.2837    2.6349    2.5121 H       1  UNL1        0.0660
     48 H           3.5780    0.6252    0.3034 H       1  UNL1        0.0462
     49 H           4.5624   -0.7564    0.8451 H       1  UNL1        0.0462
     50 H           5.7284    1.0849    1.4703 H       1  UNL1        0.0626
     51 H           7.3139    2.3777    2.7449 H       1  UNL1        0.0654
     52 H           4.7772    2.1446    6.2157 H       1  UNL1        0.0654
     53 H           3.1438    0.8225    4.9311 H       1  UNL1        0.0626
     54 H           8.7370    4.1078    5.6226 H       1  UNL1        0.0660
     55 H           7.9830    4.2842    4.0328 H       1  UNL1        0.0660
     56 H           8.8319    2.7552    4.4881 H       1  UNL1        0.0660
@<TRIPOS>BOND
     1     1     2    1
     2     2     3   ar
     3     3     4   ar
     4     4     5   ar
     5     5     6   ar
     6     6     7   ar
     7     2     7   ar
     8     1     8   ar
     9     8     9   ar
    10     9    10   ar
    11    10    11   ar
    12     1    11   ar
    13    11    12    1
    14    12    13   ar
    15    13    14   ar
    16    14    15   ar
    17    15    16   ar
    18    16    17   ar
    19    12    17   ar
    20    15    18    1
    21    18    19    1
    22    14    20    1
    23    20    21    1
    24     8    22    1
    25    22    23    1
    26    23    24    1
    27    24    25    2
    28    24    26    1
    29    26    27   ar
    30    27    28   ar
    31    28    29   ar
    32    29    30   ar
    33    30    31   ar
    34    26    31   ar
    35    29    32    1
    36    32    33    1
    37     3    34    1
    38     4    35    1
    39     5    36    1
    40     6    37    1
    41     7    38    1
    42    13    39    1
    43    16    40    1
    44    17    41    1
    45    19    42    1
    46    19    43    1
    47    19    44    1
    48    21    45    1
    49    21    46    1
    50    21    47    1
    51    23    48    1
    52    23    49    1
    53    27    50    1
    54    28    51    1
    55    30    52    1
    56    31    53    1
    57    33    54    1
    58    33    55    1
    59    33    56    1
