@<TRIPOS>MOLECULE
CS68
 55 58 0 0 0
SMALL
GASTEIGER

@<TRIPOS>ATOM
      1 N           0.8394   -0.7042   -1.1995 N.ar    1  UNL1       -0.2156
      2 C           1.4181   -1.9668   -0.9138 C.ar    1  UNL1        0.0674
      3 C           0.7174   -3.1556   -1.1710 C.ar    1  UNL1       -0.0362
      4 C           1.3094   -4.4040   -0.9658 C.ar    1  UNL1       -0.0598
      5 C           2.6168   -4.4819   -0.4978 C.ar    1  UNL1       -0.0616
      6 C           3.3225   -3.3122   -0.2195 C.ar    1  UNL1       -0.0598
      7 C           2.7224   -2.0606   -0.4129 C.ar    1  UNL1       -0.0362
      8 N          -0.2926   -0.5791   -2.0617 N.ar    1  UNL1       -0.2823
      9 C          -0.8247    0.6981   -1.8154 C.ar    1  UNL1        0.0595
     10 C          -0.1487    1.3676   -0.8693 C.ar    1  UNL1        0.1213
     11 C           0.9375    0.4452   -0.3946 C.ar    1  UNL1        0.2934
     12 O           1.6393    0.6645    0.5797 O.2     1  UNL1       -0.2638
     13 N          -0.4342    2.5785   -0.2837 N.am    1  UNL1       -0.2784
     14 C           0.1521    3.7561   -0.7180 C.2     1  UNL1        0.2363
     15 O           0.9955    3.7712   -1.6183 O.2     1  UNL1       -0.2737
     16 C          -0.1929    5.0320    0.0566 C.3     1  UNL1        0.1081
     17 N          -0.6022    6.3145   -0.6259 N.3     1  UNL1       -0.1647
     18 C          -1.0337    7.2221    0.4935 C.3     1  UNL1        0.0214
     19 C          -1.4058    6.3236    1.6685 C.3     1  UNL1       -0.0366
     20 C          -1.2339    4.9008    1.1688 C.3     1  UNL1       -0.0260
     21 S          -1.7245    6.2451   -1.9084 S.O2    1  UNL1        0.0615
     22 O          -2.5612    5.0898   -1.6724 O.2     1  UNL1       -0.1528
     23 O          -2.3080    7.5667   -2.0584 O.2     1  UNL1       -0.1528
     24 C          -0.8451    5.9667   -3.4139 C.ar    1  UNL1        0.1055
     25 C           0.5433    5.9818   -3.4852 C.ar    1  UNL1       -0.0353
     26 C           1.1671    5.7529   -4.7148 C.ar    1  UNL1       -0.0599
     27 C           0.4047    5.5626   -5.8706 C.ar    1  UNL1       -0.0616
     28 C          -0.9863    5.6007   -5.8065 C.ar    1  UNL1       -0.0599
     29 C          -1.6140    5.8022   -4.5774 C.ar    1  UNL1       -0.0353
     30 C          -1.9559    1.2471   -2.6244 C.3     1  UNL1       -0.0208
     31 C          -0.0743   -1.0283   -3.4452 C.3     1  UNL1        0.0292
     32 H          -0.3119   -3.1210   -1.5177 H       1  UNL1        0.0639
     33 H           0.7470   -5.3104   -1.1739 H       1  UNL1        0.0618
     34 H           3.0830   -5.4523   -0.3467 H       1  UNL1        0.0618
     35 H           4.3468   -3.3729    0.1406 H       1  UNL1        0.0618
     36 H           3.3056   -1.1648   -0.2105 H       1  UNL1        0.0639
     37 H          -1.3332    2.6360    0.1758 H       1  UNL1        0.1551
     38 H           0.7654    5.2697    0.5481 H       1  UNL1        0.0576
     39 H          -1.8693    7.8779    0.2365 H       1  UNL1        0.0444
     40 H          -0.1928    7.8751    0.7570 H       1  UNL1        0.0444
     41 H          -2.4318    6.5047    2.0068 H       1  UNL1        0.0279
     42 H          -0.7428    6.5218    2.5173 H       1  UNL1        0.0279
     43 H          -2.1910    4.5291    0.7854 H       1  UNL1        0.0286
     44 H          -0.9153    4.2264    1.9688 H       1  UNL1        0.0286
     45 H           1.1523    6.1376   -2.6002 H       1  UNL1        0.0637
     46 H           2.2524    5.7182   -4.7691 H       1  UNL1        0.0618
     47 H           0.8994    5.3911   -6.8235 H       1  UNL1        0.0618
     48 H          -1.5795    5.4759   -6.7090 H       1  UNL1        0.0618
     49 H          -2.7009    5.8440   -4.5303 H       1  UNL1        0.0637
     50 H          -1.9474    0.8641   -3.6493 H       1  UNL1        0.0293
     51 H          -1.8955    2.3375   -2.7053 H       1  UNL1        0.0293
     52 H          -2.9127    0.9794   -2.1692 H       1  UNL1        0.0293
     53 H           0.4561   -1.9829   -3.5027 H       1  UNL1        0.0472
     54 H           0.5049   -0.2923   -4.0130 H       1  UNL1        0.0472
     55 H          -1.0385   -1.1846   -3.9406 H       1  UNL1        0.0472
@<TRIPOS>BOND
     1     1     2    1
     2     2     3   ar
     3     3     4   ar
     4     4     5   ar
     5     5     6   ar
     6     6     7   ar
     7     2     7   ar
     8     1     8   ar
     9     8     9   ar
    10     9    10   ar
    11    10    11   ar
    12     1    11   ar
    13    11    12    2
    14    10    13    1
    15    13    14   am
    16    14    15    2
    17    14    16    1
    18    16    17    1
    19    17    18    1
    20    18    19    1
    21    19    20    1
    22    16    20    1
    23    17    21    1
    24    21    22    2
    25    21    23    2
    26    21    24    1
    27    24    25   ar
    28    25    26   ar
    29    26    27   ar
    30    27    28   ar
    31    28    29   ar
    32    24    29   ar
    33     9    30    1
    34     8    31    1
    35     3    32    1
    36     4    33    1
    37     5    34    1
    38     6    35    1
    39     7    36    1
    40    13    37    1
    41    16    38    1
    42    18    39    1
    43    18    40    1
    44    19    41    1
    45    19    42    1
    46    20    43    1
    47    20    44    1
    48    25    45    1
    49    26    46    1
    50    27    47    1
    51    28    48    1
    52    29    49    1
    53    30    50    1
    54    30    51    1
    55    30    52    1
    56    31    53    1
    57    31    54    1
    58    31    55    1
