@<TRIPOS>MOLECULE
CS69
 42 43 0 0 0
SMALL
GASTEIGER

@<TRIPOS>ATOM
      1 O           0.4518    0.8164   -0.4353 O.2     1  UNL1       -0.2704
      2 C           1.6711    0.8135   -0.5260 C.2     1  UNL1        0.2416
      3 N           2.3026    0.2404   -1.5944 N.am    1  UNL1       -0.3253
      4 C           2.5327    1.3814    0.5423 C.ar    1  UNL1        0.0386
      5 C           2.0350    1.4200    1.8450 C.ar    1  UNL1       -0.0478
      6 C           2.8046    1.9538    2.8845 C.ar    1  UNL1       -0.0380
      7 C           4.0971    2.4555    2.6678 C.ar    1  UNL1        0.0537
      8 C           4.5782    2.4143    1.3332 C.ar    1  UNL1        0.0966
      9 C           3.8031    1.8895    0.2785 C.ar    1  UNL1       -0.0216
     10 N           5.9261    2.9074    0.9863 N.pl3   1  UNL1       -0.1847
     11 O           6.7338    3.1278    1.9022 O.2     1  UNL1       -0.1725
     12 O           6.1914    3.0445   -0.2159 O.co2   1  UNL1       -0.7770
     13 N           4.7975    3.0762    3.6900 N.pl3   1  UNL1       -0.3421
     14 C           4.3672    3.1845    5.0787 C.3     1  UNL1        0.0103
     15 C           5.4745    3.8939    5.8572 C.3     1  UNL1       -0.0246
     16 C           5.1648    4.0945    7.3454 C.3     1  UNL1        0.0005
     17 N           6.2358    4.8644    8.0020 N.3     1  UNL1       -0.2979
     18 C           7.5438    4.1727    8.0463 C.3     1  UNL1        0.0224
     19 C           7.5984    3.0211    9.0600 C.3     1  UNL1        0.0604
     20 O           7.2924    3.4887   10.3799 O.3     1  UNL1       -0.3772
     21 C           6.0079    4.1195   10.4188 C.3     1  UNL1        0.0604
     22 C           5.8863    5.2541    9.3846 C.3     1  UNL1        0.0224
     23 H           1.7090   -0.2399   -2.2610 H       1  UNL1        0.1453
     24 H           3.2861    0.0081   -1.5992 H       1  UNL1        0.1453
     25 H           1.0383    1.0368    2.0584 H       1  UNL1        0.0626
     26 H           2.3646    1.9659    3.8782 H       1  UNL1        0.0637
     27 H           4.1763    1.9074   -0.7427 H       1  UNL1        0.0647
     28 H           5.8103    3.1366    3.5384 H       1  UNL1        0.1461
     29 H           4.1911    2.1906    5.5061 H       1  UNL1        0.0461
     30 H           3.4389    3.7636    5.1381 H       1  UNL1        0.0461
     31 H           5.6727    4.8690    5.3903 H       1  UNL1        0.0293
     32 H           6.3856    3.2963    5.7365 H       1  UNL1        0.0293
     33 H           4.9921    3.1274    7.8305 H       1  UNL1        0.0427
     34 H           4.2255    4.6596    7.4159 H       1  UNL1        0.0427
     35 H           8.2932    4.9214    8.3346 H       1  UNL1        0.0449
     36 H           7.8584    3.8217    7.0600 H       1  UNL1        0.0449
     37 H           8.6107    2.6046    9.0841 H       1  UNL1        0.0572
     38 H           6.9157    2.2065    8.7930 H       1  UNL1        0.0572
     39 H           5.8864    4.5330   11.4252 H       1  UNL1        0.0572
     40 H           5.2309    3.3612   10.2756 H       1  UNL1        0.0572
     41 H           6.5808    6.0539    9.6748 H       1  UNL1        0.0449
     42 H           4.8847    5.6975    9.4247 H       1  UNL1        0.0449
@<TRIPOS>UNITY_ATOM_ATTR
12 1
charge -1
@<TRIPOS>BOND
     1     1     2    2
     2     2     3   am
     3     2     4    1
     4     4     5   ar
     5     5     6   ar
     6     6     7   ar
     7     7     8   ar
     8     8     9   ar
     9     4     9   ar
    10     8    10    1
    11    10    11    2
    12    10    12    1
    13     7    13    1
    14    13    14    1
    15    14    15    1
    16    15    16    1
    17    16    17    1
    18    17    18    1
    19    18    19    1
    20    19    20    1
    21    20    21    1
    22    21    22    1
    23    17    22    1
    24     3    23    1
    25     3    24    1
    26     5    25    1
    27     6    26    1
    28     9    27    1
    29    13    28    1
    30    14    29    1
    31    14    30    1
    32    15    31    1
    33    15    32    1
    34    16    33    1
    35    16    34    1
    36    18    35    1
    37    18    36    1
    38    19    37    1
    39    19    38    1
    40    21    39    1
    41    21    40    1
    42    22    41    1
    43    22    42    1
