REMARK  Name = CS1
REMARK  2 active torsions:
REMARK  status: ('A' for Active; 'I' for Inactive)
REMARK    1  A    between atoms: C_5  and  C_8
REMARK    2  A    between atoms: C_14  and  C_16
REMARK                            x       y       z     vdW  Elec       q    Type
REMARK                         _______ _______ _______ _____ _____    ______ ____
ROOT
ATOM      1  C   UNL A   1       4.633  -0.077   0.405  0.00  0.00    +0.249 C 
ATOM      2  O   UNL A   1       5.095   0.866   1.044  0.00  0.00    -0.270 OA
ATOM      3  N   UNL A   1       5.383  -1.085  -0.155  0.00  0.00    -0.265 N 
ATOM      4  C   UNL A   1       6.748  -1.167  -0.014  0.00  0.00    +0.147 A 
ATOM      5  N   UNL A   1       7.472  -1.768  -0.955  0.00  0.00    -0.158 NA
ATOM      6  N   UNL A   1       8.739  -1.549  -0.575  0.00  0.00    -0.280 N 
ATOM      7  C   UNL A   1       8.849  -1.007   0.674  0.00  0.00    +0.035 A 
ATOM      8  C   UNL A   1       7.558  -0.719   1.057  0.00  0.00    +0.068 A 
ATOM      9  C   UNL A   1      10.147  -0.812   1.354  0.00  0.00    +0.065 C 
ATOM     10  H   UNL A   1       5.032  -1.683  -0.883  0.00  0.00    +0.157 HD
ATOM     11  H   UNL A   1       9.484  -1.805  -1.214  0.00  0.00    +0.189 HD
ENDROOT
BRANCH   1  16
ATOM     12 BR   UNL A   1      -1.531  -0.278  -0.045  0.00  0.00    -0.050 Br
ATOM     13  C   UNL A   1       0.355  -0.197   0.030  0.00  0.00    +0.018 A 
ATOM     14  C   UNL A   1       1.119  -1.039  -0.777  0.00  0.00    +0.016 A 
ATOM     15  C   UNL A   1       2.517  -1.006  -0.700  0.00  0.00    +0.014 A 
ATOM     16  C   UNL A   1       3.152  -0.134   0.196  0.00  0.00    +0.037 A 
ATOM     17  C   UNL A   1       2.365   0.729   0.979  0.00  0.00    +0.014 A 
ATOM     18  C   UNL A   1       0.972   0.696   0.900  0.00  0.00    +0.016 A 
ENDBRANCH   1  16
TORSDOF 1
