REMARK  Name = CS100
REMARK  7 active torsions:
REMARK  status: ('A' for Active; 'I' for Inactive)
REMARK    1  A    between atoms: C_1  and  C_2
REMARK    2  A    between atoms: C_5  and  S_6
REMARK    3  A    between atoms: S_6  and  N_9
REMARK    4  A    between atoms: N_9  and  C_10
REMARK    5  A    between atoms: C_11  and  C_12
REMARK    6  A    between atoms: C_12  and  N_13
REMARK    7  A    between atoms: N_13  and  C_14
REMARK                            x       y       z     vdW  Elec       q    Type
REMARK                         _______ _______ _______ _____ _____    ______ ____
ROOT
ATOM      1  C   UNL A   1      -5.543   1.771  -0.047  0.00  0.00    +0.053 A 
ATOM      2  C   UNL A   1      -6.381   1.087   0.825  0.00  0.00    -0.008 A 
ATOM      3  C   UNL A   1      -7.771   1.450   0.726  0.00  0.00    +0.007 A 
ATOM      4  C   UNL A   1      -8.283   2.440  -0.158  0.00  0.00    +0.001 A 
ATOM      5  C   UNL A   1      -7.422   3.142  -0.980  0.00  0.00    +0.002 A 
ATOM      6  C   UNL A   1      -6.046   2.829  -0.911  0.00  0.00    +0.025 A 
ENDROOT
BRANCH   1   7
ATOM      7  N   UNL A   1      -4.141   1.437  -0.021  0.00  0.00    -0.216 N 
ATOM      8  H   UNL A   1      -3.547   2.244   0.169  0.00  0.00    +0.174 HD
BRANCH   7   9
ATOM      9  S   UNL A   1      -3.525   0.160  -1.076  0.00  0.00    +0.072 S 
ATOM     10  O   UNL A   1      -4.297  -1.038  -0.844  0.00  0.00    -0.150 OA
ATOM     11  O   UNL A   1      -2.141  -0.058  -1.011  0.00  0.00    -0.150 OA
BRANCH   9  16
ATOM     12  C   UNL A   1      -5.332   2.452  -6.455  0.00  0.00    +0.044 C 
ATOM     13  C   UNL A   1      -4.794   1.805  -5.216  0.00  0.00    -0.050 A 
ATOM     14  C   UNL A   1      -3.550   2.171  -4.693  0.00  0.00    +0.005 A 
ATOM     15  C   UNL A   1      -3.104   1.647  -3.471  0.00  0.00    +0.029 A 
ATOM     16  C   UNL A   1      -3.950   0.819  -2.716  0.00  0.00    +0.108 A 
ATOM     17  C   UNL A   1      -5.125   0.345  -3.312  0.00  0.00    +0.029 A 
ATOM     18  C   UNL A   1      -5.551   0.841  -4.546  0.00  0.00    +0.005 A 
ENDBRANCH   9  16
ENDBRANCH   7   9
ENDBRANCH   1   7
BRANCH   2  19
ATOM     19  C   UNL A   1      -5.970  -0.084   1.849  0.00  0.00    +0.138 C 
BRANCH  19  20
ATOM     20  N   UNL A   1      -6.658  -0.378   3.191  0.00  0.00    -0.339 N 
ATOM     21  H   UNL A   1      -6.723   0.562   3.600  0.00  0.00    +0.146 HD
BRANCH  20  22
ATOM     22  C   UNL A   1      -6.493  -1.402   4.358  0.00  0.00    +0.046 A 
ATOM     23  C   UNL A   1      -5.652  -2.530   4.739  0.00  0.00    +0.134 A 
ATOM     24  N   UNL A   1      -6.002  -2.986   6.002  0.00  0.00    -0.253 NA
ATOM     25  C   UNL A   1      -7.274  -3.077   6.341  0.00  0.00    +0.071 A 
ATOM     26  C   UNL A   1      -7.760  -4.250   6.797  0.00  0.00    +0.028 A 
ATOM     27  C   UNL A   1      -9.076  -4.307   7.210  0.00  0.00    +0.002 A 
ATOM     28  C   UNL A   1      -9.856  -3.128   7.143  0.00  0.00    +0.001 A 
ATOM     29  C   UNL A   1      -9.334  -1.956   6.664  0.00  0.00    +0.010 A 
ATOM     30  C   UNL A   1      -8.085  -2.014   6.113  0.00  0.00    +0.002 A 
ATOM     31  C   UNL A   1      -7.603  -1.107   5.209  0.00  0.00    +0.034 A 
ENDBRANCH  20  22
ENDBRANCH  19  20
ENDBRANCH   2  19
TORSDOF 6
