REMARK  Name = CS102
REMARK  6 active torsions:
REMARK  status: ('A' for Active; 'I' for Inactive)
REMARK    1  A    between atoms: N_1  and  C_3
REMARK    2  A    between atoms: C_7  and  C_9
REMARK    3  A    between atoms: N_11  and  C_20
REMARK    4  A    between atoms: C_20  and  C_21
REMARK    5  A    between atoms: N_23  and  C_24
REMARK    6  A    between atoms: C_24  and  C_25
REMARK                            x       y       z     vdW  Elec       q    Type
REMARK                         _______ _______ _______ _____ _____    ______ ____
ROOT
ATOM      1  C   UNL A   1      -3.110  -0.013   2.996  0.00  0.00    +0.099 A 
ATOM      2  N   UNL A   1      -3.593   1.197   2.816  0.00  0.00    -0.167 NA
ATOM      3  N   UNL A   1      -4.028   1.804   3.993  0.00  0.00    -0.220 N 
ATOM      4  C   UNL A   1      -3.556   1.312   5.203  0.00  0.00    +0.276 A 
ATOM      5  O   UNL A   1      -3.062   1.934   6.121  0.00  0.00    -0.266 OA
ATOM      6  C   UNL A   1      -3.887  -0.100   5.279  0.00  0.00    +0.050 A 
ATOM      7  C   UNL A   1      -3.651  -0.824   4.121  0.00  0.00    +0.015 A 
ATOM      8  C   UNL A   1      -4.222  -2.097   3.977  0.00  0.00    +0.011 A 
ATOM      9  C   UNL A   1      -5.068  -2.563   5.003  0.00  0.00    +0.001 A 
ATOM     10  C   UNL A   1      -5.351  -1.777   6.130  0.00  0.00    +0.001 A 
ATOM     11  C   UNL A   1      -4.741  -0.538   6.282  0.00  0.00    +0.014 A 
ENDROOT
BRANCH   1  16
ATOM     12  C   UNL A   1       0.104  -1.764   1.947  0.00  0.00    +0.076 A 
ATOM     13  C   UNL A   1       0.468  -1.016   0.820  0.00  0.00    +0.028 A 
ATOM     14  C   UNL A   1      -0.345   0.040   0.410  0.00  0.00    +0.003 A 
ATOM     15  C   UNL A   1      -1.530   0.321   1.097  0.00  0.00    +0.010 A 
ATOM     16  C   UNL A   1      -1.936  -0.466   2.189  0.00  0.00    +0.005 A 
ATOM     17  C   UNL A   1      -1.095  -1.496   2.635  0.00  0.00    +0.038 A 
BRANCH  12  18
ATOM     18  N   UNL A   1       1.022  -2.789   2.467  0.00  0.00    -0.187 N 
ATOM     19  O   UNL A   1       2.048  -3.029   1.805  0.00  0.00    -0.173 OA
ATOM     20  O   UNL A   1       0.719  -3.353   3.521  0.00  0.00    -0.777 OA
ENDBRANCH  12  18
ENDBRANCH   1  16
BRANCH   3  21
ATOM     21  C   UNL A   1      -5.115   2.759   4.058  0.00  0.00    +0.242 C 
BRANCH  21  22
ATOM     22  C   UNL A   1      -6.497   2.100   3.920  0.00  0.00    +0.235 C 
ATOM     23  O   UNL A   1      -7.416   2.330   4.709  0.00  0.00    -0.274 OA
ATOM     24  N   UNL A   1      -6.686   1.355   2.774  0.00  0.00    -0.311 N 
ATOM     25  H   UNL A   1      -5.849   0.987   2.331  0.00  0.00    +0.149 HD
BRANCH  24  26
ATOM     26  C   UNL A   1      -7.970   0.747   2.466  0.00  0.00    +0.135 C 
BRANCH  26  27
ATOM     27  C   UNL A   1      -7.964   0.038   1.106  0.00  0.00    +0.135 C 
ATOM     28  O   UNL A   1      -7.068  -1.095   1.150  0.00  0.00    -0.375 OA
ATOM     29  C   UNL A   1      -7.756  -2.240   0.628  0.00  0.00    +0.160 C 
ATOM     30  C   UNL A   1      -8.977  -1.727  -0.099  0.00  0.00    +0.030 C 
ATOM     31  C   UNL A   1      -9.331  -0.500   0.704  0.00  0.00    +0.035 C 
ENDBRANCH  26  27
ENDBRANCH  24  26
ENDBRANCH  21  22
ENDBRANCH   3  21
TORSDOF 6
