REMARK  Name = CS154
REMARK  2 active torsions:
REMARK  status: ('A' for Active; 'I' for Inactive)
REMARK    1  A    between atoms: C_11  and  C_13
REMARK    2  A    between atoms: C_13  and  N_14
REMARK                            x       y       z     vdW  Elec       q    Type
REMARK                         _______ _______ _______ _____ _____    ______ ____
ROOT
ATOM      1  N   UNL A   1      -1.167   1.460  -0.181  0.00  0.00    -0.270 N 
ATOM      2  C   UNL A   1       0.073   0.723  -0.077  0.00  0.00    +0.040 A 
ATOM      3  C   UNL A   1       1.324   1.357  -0.045  0.00  0.00    +0.024 A 
ATOM      4  C   UNL A   1       2.513   0.625   0.030  0.00  0.00    +0.002 A 
ATOM      5  C   UNL A   1       2.477  -0.761   0.082  0.00  0.00    +0.000 A 
ATOM      6  C   UNL A   1       1.248  -1.414   0.084  0.00  0.00    +0.005 A 
ATOM      7  C   UNL A   1       0.045  -0.688   0.010  0.00  0.00    -0.026 A 
ATOM      8  C   UNL A   1      -1.241  -1.474   0.042  0.00  0.00    +0.038 C 
ATOM      9  C   UNL A   1      -2.451  -0.644  -0.342  0.00  0.00    +0.024 C 
ATOM     10  C   UNL A   1      -2.351   0.727   0.296  0.00  0.00    +0.114 C 
ATOM     11  C   UNL A   1      -1.225   2.741  -0.757  0.00  0.00    +0.241 C 
ATOM     12  O   UNL A   1      -0.256   3.339  -1.236  0.00  0.00    -0.273 OA
ENDROOT
BRANCH  11  13
ATOM     13  C   UNL A   1      -2.569   3.439  -0.850  0.00  0.00    +0.239 C 
BRANCH  13  14
ATOM     14  N   UNL A   1      -3.223   3.142  -2.112  0.00  0.00    -0.261 N 
ATOM     15  C   UNL A   1      -3.119   3.853  -3.278  0.00  0.00    +0.111 A 
ATOM     16  C   UNL A   1      -3.892   3.194  -4.206  0.00  0.00    +0.070 A 
ATOM     17  C   UNL A   1      -4.444   2.104  -3.500  0.00  0.00    +0.185 A 
ATOM     18  N   UNL A   1      -4.072   2.095  -2.206  0.00  0.00    -0.150 NA
ATOM     19  N   UNL A   1      -5.312   1.052  -4.001  0.00  0.00    -0.166 N 
ATOM     20  O   UNL A   1      -5.603   1.112  -5.206  0.00  0.00    -0.171 OA
ATOM     21  O   UNL A   1      -5.695   0.174  -3.214  0.00  0.00    -0.776 OA
ENDBRANCH  13  14
ENDBRANCH  11  13
TORSDOF 2
