REMARK  Name = CS160
REMARK  7 active torsions:
REMARK  status: ('A' for Active; 'I' for Inactive)
REMARK    1  A    between atoms: C_7  and  C_9
REMARK    2  A    between atoms: C_14  and  N_15
REMARK    3  A    between atoms: C_16  and  C_18
REMARK    4  A    between atoms: C_18  and  N_19
REMARK    5  A    between atoms: N_19  and  C_20
REMARK    6  A    between atoms: N_19  and  S_27
REMARK    7  A    between atoms: S_27  and  C_30
REMARK                            x       y       z     vdW  Elec       q    Type
REMARK                         _______ _______ _______ _____ _____    ______ ____
ROOT
ATOM      1  N   UNL A   1      -4.984   0.742   0.143  0.00  0.00    -0.283 N 
ATOM      2  C   UNL A   1      -4.773  -0.633   0.303  0.00  0.00    +0.236 C 
ATOM      3  O   UNL A   1      -4.014  -1.302  -0.401  0.00  0.00    -0.274 OA
ATOM      4  H   UNL A   1      -5.144   1.282   0.989  0.00  0.00    +0.155 HD
ENDROOT
BRANCH   1  10
ATOM      5  C   UNL A   1      -3.836   2.730  -0.884  0.00  0.00    +0.058 A 
ATOM      6  C   UNL A   1      -3.267   3.270  -2.055  0.00  0.00    +0.015 A 
ATOM      7  C   UNL A   1      -3.481   2.720  -3.312  0.00  0.00    +0.001 A 
ATOM      8  C   UNL A   1      -4.162   1.522  -3.412  0.00  0.00    +0.002 A 
ATOM      9  C   UNL A   1      -4.603   0.879  -2.253  0.00  0.00    +0.024 A 
ATOM     10  C   UNL A   1      -4.455   1.459  -0.976  0.00  0.00    +0.046 A 
BRANCH   5  17
ATOM     11  N   UNL A   1      -3.416   4.852   0.418  0.00  0.00    -0.293 N 
ATOM     12  C   UNL A   1      -3.902   5.829  -0.572  0.00  0.00    +0.136 C 
ATOM     13  C   UNL A   1      -2.735   6.701  -1.065  0.00  0.00    +0.178 C 
ATOM     14  O   UNL A   1      -2.113   7.373   0.041  0.00  0.00    -0.377 OA
ATOM     15  C   UNL A   1      -1.611   6.426   1.004  0.00  0.00    +0.178 C 
ATOM     16  C   UNL A   1      -2.730   5.508   1.539  0.00  0.00    +0.136 C 
ATOM     17  C   UNL A   1      -3.569   3.454   0.405  0.00  0.00    +0.248 C 
ATOM     18  O   UNL A   1      -3.432   2.776   1.420  0.00  0.00    -0.270 OA
ENDBRANCH   5  17
ENDBRANCH   1  10
BRANCH   2  19
ATOM     19  C   UNL A   1      -5.580  -1.315   1.417  0.00  0.00    +0.227 C 
BRANCH  19  20
ATOM     20  N   UNL A   1      -4.716  -1.790   2.557  0.00  0.00    -0.199 N 
BRANCH  20  21
ATOM     21  C   UNL A   1      -4.042  -0.746   3.279  0.00  0.00    +0.051 A 
ATOM     22  C   UNL A   1      -2.683  -0.897   3.563  0.00  0.00    +0.026 A 
ATOM     23  C   UNL A   1      -1.985   0.138   4.190  0.00  0.00    +0.022 A 
ATOM     24  C   UNL A   1      -2.654   1.311   4.541  0.00  0.00    +0.041 A 
ATOM     25  C   UNL A   1      -4.025   1.432   4.333  0.00  0.00    +0.022 A 
ATOM     26  C   UNL A   1      -4.726   0.389   3.727  0.00  0.00    +0.026 A 
ATOM     27 CL   UNL A   1      -1.782   2.623   5.233  0.00  0.00    -0.084 Cl
ENDBRANCH  20  21
BRANCH  20  28
ATOM     28  S   UNL A   1      -5.421  -2.985   3.551  0.00  0.00    +0.043 S 
ATOM     29  O   UNL A   1      -4.535  -3.249   4.671  0.00  0.00    -0.155 OA
ATOM     30  O   UNL A   1      -6.801  -2.631   3.770  0.00  0.00    -0.155 OA
ATOM     31  C   UNL A   1      -5.366  -4.439   2.514  0.00  0.00    +0.218 C 
ENDBRANCH  20  28
ENDBRANCH  19  20
ENDBRANCH   2  19
TORSDOF 6
