REMARK  Name = CS261
REMARK  8 active torsions:
REMARK  status: ('A' for Active; 'I' for Inactive)
REMARK    1  A    between atoms: N_4  and  N_5
REMARK    2  A    between atoms: N_5  and  C_6
REMARK    3  A    between atoms: C_9  and  S_10
REMARK    4  A    between atoms: S_10  and  N_13
REMARK    5  A    between atoms: C_21  and  C_23
REMARK    6  A    between atoms: N_25  and  C_26
REMARK    7  A    between atoms: C_26  and  C_27
REMARK    8  A    between atoms: C_27  and  C_28
REMARK                            x       y       z     vdW  Elec       q    Type
REMARK                         _______ _______ _______ _____ _____    ______ ____
ROOT
ATOM      1  O   UNL A   1      -3.009  -0.648   0.023  0.00  0.00    -0.268 OA
ATOM      2  C   UNL A   1      -1.807  -0.475  -0.002  0.00  0.00    +0.269 C 
ATOM      3  C   UNL A   1      -1.106   0.887  -0.015  0.00  0.00    +0.152 C 
ATOM      4  N   UNL A   1      -1.629   2.067   0.049  0.00  0.00    -0.177 NA
ATOM      5  C   UNL A   1       0.324   0.597  -0.053  0.00  0.00    +0.029 A 
ATOM      6  C   UNL A   1       0.450  -0.789  -0.017  0.00  0.00    +0.043 A 
ATOM      7  N   UNL A   1      -0.795  -1.411  -0.005  0.00  0.00    -0.280 N 
ATOM      8  C   UNL A   1       1.686  -1.391   0.028  0.00  0.00    +0.025 A 
ATOM      9  C   UNL A   1       2.805  -0.549   0.033  0.00  0.00    +0.015 A 
ATOM     10  C   UNL A   1       2.683   0.869  -0.017  0.00  0.00    +0.037 A 
ATOM     11  C   UNL A   1       1.408   1.453  -0.059  0.00  0.00    +0.025 A 
ATOM     12  H   UNL A   1      -0.963  -2.406   0.021  0.00  0.00    +0.155 HD
ENDROOT
BRANCH  10  13
ATOM     13  C   UNL A   1       3.947   1.664  -0.018  0.00  0.00    +0.244 C 
ATOM     14  O   UNL A   1       5.027   1.088   0.039  0.00  0.00    -0.270 OA
ATOM     15  N   UNL A   1       3.848   3.039  -0.095  0.00  0.00    -0.311 N 
ATOM     16  H   UNL A   1       2.957   3.525  -0.095  0.00  0.00    +0.149 HD
BRANCH  15  17
ATOM     17  C   UNL A   1       5.041   3.863  -0.071  0.00  0.00    +0.111 C 
BRANCH  17  18
ATOM     18  C   UNL A   1       4.753   5.363  -0.142  0.00  0.00    +0.075 C 
BRANCH  18  19
ATOM     19  C   UNL A   1       3.941   5.848   1.008  0.00  0.00    +0.060 A 
ATOM     20  C   UNL A   1       4.354   6.326   2.234  0.00  0.00    +0.107 A 
ATOM     21  N   UNL A   1       3.202   6.627   2.909  0.00  0.00    -0.351 N 
ATOM     22  C   UNL A   1       2.153   6.326   2.087  0.00  0.00    +0.196 A 
ATOM     23  N   UNL A   1       2.566   5.845   0.937  0.00  0.00    -0.241 NA
ATOM     24  H   UNL A   1       3.133   7.003   3.845  0.00  0.00    +0.166 HD
ENDBRANCH  18  19
ENDBRANCH  17  18
ENDBRANCH  15  17
ENDBRANCH  10  13
BRANCH   4  25
ATOM     25  N   UNL A   1      -2.978   2.123   0.164  0.00  0.00    -0.237 N 
ATOM     26  H   UNL A   1      -3.551   1.279   0.251  0.00  0.00    +0.174 HD
BRANCH  25  27
ATOM     27  C   UNL A   1      -3.624   3.363   0.275  0.00  0.00    +0.048 A 
ATOM     28  C   UNL A   1      -2.932   4.578   0.148  0.00  0.00    +0.026 A 
ATOM     29  C   UNL A   1      -3.590   5.800   0.265  0.00  0.00    +0.030 A 
ATOM     30  C   UNL A   1      -4.958   5.816   0.523  0.00  0.00    +0.105 A 
ATOM     31  C   UNL A   1      -5.674   4.624   0.654  0.00  0.00    +0.030 A 
ATOM     32  C   UNL A   1      -5.005   3.406   0.527  0.00  0.00    +0.026 A 
BRANCH  30  33
ATOM     33  S   UNL A   1      -5.804   7.357   0.738  0.00  0.00    +0.056 S 
ATOM     34  O   UNL A   1      -7.026   7.112   1.481  0.00  0.00    -0.153 OA
ATOM     35  O   UNL A   1      -4.855   8.362   1.122  0.00  0.00    -0.153 OA
BRANCH  33  36
ATOM     36  N   UNL A   1      -6.238   7.639  -0.849  0.00  0.00    -0.203 NA
ATOM     37  H   UNL A   1      -7.214   7.490  -1.085  0.00  0.00    +0.144 HD
ATOM     38  H   UNL A   1      -5.684   8.326  -1.350  0.00  0.00    +0.144 HD
ENDBRANCH  33  36
ENDBRANCH  30  33
ENDBRANCH  25  27
ENDBRANCH   4  25
TORSDOF 8
