REMARK  Name = CS262
REMARK  10 active torsions:
REMARK  status: ('A' for Active; 'I' for Inactive)
REMARK    1  A    between atoms: N_4  and  N_5
REMARK    2  A    between atoms: N_5  and  C_6
REMARK    3  A    between atoms: C_9  and  S_10
REMARK    4  A    between atoms: S_10  and  N_13
REMARK    5  A    between atoms: C_21  and  C_23
REMARK    6  A    between atoms: C_23  and  O_25
REMARK    7  A    between atoms: O_25  and  C_26
REMARK    8  A    between atoms: C_26  and  C_27
REMARK    9  A    between atoms: C_27  and  C_28
REMARK   10  A    between atoms: C_27  and  C_29
REMARK                            x       y       z     vdW  Elec       q    Type
REMARK                         _______ _______ _______ _____ _____    ______ ____
ROOT
ATOM      1  O   UNL A   1      -2.971  -0.613   0.119  0.00  0.00    -0.268 OA
ATOM      2  C   UNL A   1      -1.774  -0.443   0.056  0.00  0.00    +0.269 C 
ATOM      3  C   UNL A   1      -1.059   0.916   0.007  0.00  0.00    +0.152 C 
ATOM      4  N   UNL A   1      -1.587   2.097   0.028  0.00  0.00    -0.177 NA
ATOM      5  C   UNL A   1       0.371   0.621  -0.041  0.00  0.00    +0.029 A 
ATOM      6  C   UNL A   1       0.483  -0.768  -0.009  0.00  0.00    +0.043 A 
ATOM      7  N   UNL A   1      -0.764  -1.384   0.033  0.00  0.00    -0.280 N 
ATOM      8  C   UNL A   1       1.713  -1.385  -0.001  0.00  0.00    +0.025 A 
ATOM      9  C   UNL A   1       2.844  -0.556  -0.021  0.00  0.00    +0.017 A 
ATOM     10  C   UNL A   1       2.734   0.859  -0.056  0.00  0.00    +0.060 A 
ATOM     11  C   UNL A   1       1.467   1.464  -0.070  0.00  0.00    +0.027 A 
ATOM     12  H   UNL A   1      -0.938  -2.378   0.074  0.00  0.00    +0.155 HD
ENDROOT
BRANCH   4  13
ATOM     13  N   UNL A   1      -2.942   2.142   0.093  0.00  0.00    -0.237 N 
ATOM     14  H   UNL A   1      -3.495   1.299   0.273  0.00  0.00    +0.174 HD
BRANCH  13  15
ATOM     15  C   UNL A   1      -3.592   3.373   0.279  0.00  0.00    +0.048 A 
ATOM     16  C   UNL A   1      -2.917   4.595   0.155  0.00  0.00    +0.026 A 
ATOM     17  C   UNL A   1      -3.594   5.809   0.287  0.00  0.00    +0.030 A 
ATOM     18  C   UNL A   1      -4.966   5.804   0.536  0.00  0.00    +0.105 A 
ATOM     19  C   UNL A   1      -5.658   4.601   0.684  0.00  0.00    +0.030 A 
ATOM     20  C   UNL A   1      -4.970   3.392   0.544  0.00  0.00    +0.026 A 
BRANCH  18  21
ATOM     21  S   UNL A   1      -5.832   7.337   0.662  0.00  0.00    +0.056 S 
ATOM     22  O   UNL A   1      -7.069   7.132   1.379  0.00  0.00    -0.153 OA
ATOM     23  O   UNL A   1      -4.902   8.387   1.004  0.00  0.00    -0.153 OA
BRANCH  21  24
ATOM     24  N   UNL A   1      -6.263   7.601  -0.939  0.00  0.00    -0.203 NA
ATOM     25  H   UNL A   1      -7.278   7.600  -1.034  0.00  0.00    +0.144 HD
ATOM     26  H   UNL A   1      -5.804   8.439  -1.293  0.00  0.00    +0.144 HD
ENDBRANCH  21  24
ENDBRANCH  18  21
ENDBRANCH  13  15
ENDBRANCH   4  13
BRANCH  10  27
ATOM     27  C   UNL A   1       4.000   1.651   0.002  0.00  0.00    +0.339 C 
ATOM     28  O   UNL A   1       5.102   1.130   0.033  0.00  0.00    -0.245 OA
BRANCH  27  29
ATOM     29  O   UNL A   1       3.733   2.975   0.122  0.00  0.00    -0.461 OA
BRANCH  29  30
ATOM     30  C   UNL A   1       4.808   3.788   0.624  0.00  0.00    +0.235 C 
BRANCH  30  31
ATOM     31  C   UNL A   1       5.430   4.686  -0.452  0.00  0.00    +0.021 C 
ATOM     32  C   UNL A   1       4.400   5.629  -1.076  0.00  0.00    +0.010 C 
ATOM     33  C   UNL A   1       6.573   5.497   0.165  0.00  0.00    +0.010 C 
ENDBRANCH  30  31
ENDBRANCH  29  30
ENDBRANCH  27  29
ENDBRANCH  10  27
TORSDOF 8
