REMARK  Name = CS47
REMARK  10 active torsions:
REMARK  status: ('A' for Active; 'I' for Inactive)
REMARK    1  A    between atoms: C_1  and  N_2
REMARK    2  A    between atoms: C_3  and  S_4
REMARK    3  A    between atoms: S_4  and  C_5
REMARK    4  A    between atoms: C_5  and  C_6
REMARK    5  A    between atoms: N_8  and  C_9
REMARK    6  A    between atoms: C_13  and  O_14
REMARK    7  A    between atoms: O_14  and  C_15
REMARK    8  A    between atoms: C_17  and  O_18
REMARK    9  A    between atoms: O_18  and  C_19
REMARK   10  A    between atoms: C_22  and  C_23
REMARK                            x       y       z     vdW  Elec       q    Type
REMARK                         _______ _______ _______ _____ _____    ______ ____
ROOT
ATOM      1  C   UNL A   1       2.641  -4.342  -0.227  0.00  0.00    +0.228 C 
ATOM      2  O   UNL A   1       3.432  -4.715  -1.092  0.00  0.00    -0.275 OA
ATOM      3  N   UNL A   1       2.070  -5.177   0.729  0.00  0.00    -0.282 N 
ATOM      4  H   UNL A   1       1.218  -4.846   1.163  0.00  0.00    +0.155 HD
ENDROOT
BRANCH   3   5
ATOM      5  C   UNL A   1       2.316  -6.568   0.761  0.00  0.00    +0.077 A 
ATOM      6  C   UNL A   1       3.643  -7.019   0.718  0.00  0.00    +0.050 A 
ATOM      7  C   UNL A   1       3.970  -8.382   0.820  0.00  0.00    +0.085 A 
ATOM      8 CL   UNL A   1       5.665  -8.720   0.857  0.00  0.00    -0.080 Cl
ATOM      9  C   UNL A   1       2.950  -9.332   0.922  0.00  0.00    +0.142 A 
ATOM     10  C   UNL A   1       1.623  -8.869   0.978  0.00  0.00    +0.094 A 
ATOM     11  C   UNL A   1       1.292  -7.507   0.919  0.00  0.00    +0.145 A 
BRANCH   9  12
ATOM     12  O   UNL A   1       3.003 -10.696   0.996  0.00  0.00    -0.493 OA
ATOM     13  C   UNL A   1       4.244 -11.378   0.947  0.00  0.00    +0.277 C 
ENDBRANCH   9  12
BRANCH  11  14
ATOM     14  O   UNL A   1      -0.045  -7.258   1.068  0.00  0.00    -0.493 OA
ATOM     15  C   UNL A   1      -0.629  -6.294   0.200  0.00  0.00    +0.277 C 
ENDBRANCH  11  14
ENDBRANCH   3   5
BRANCH   1  16
ATOM     16  C   UNL A   1       2.208  -2.886  -0.134  0.00  0.00    +0.173 C 
BRANCH  16  17
ATOM     17  S   UNL A   1       0.406  -2.755  -0.315  0.00  0.00    -0.077 S 
BRANCH  17  20
ATOM     18  C   UNL A   1      -2.031  -0.885  -1.285  0.00  0.00    +0.153 C 
ATOM     19  N   UNL A   1      -0.974  -0.395  -0.441  0.00  0.00    -0.305 N 
ATOM     20  C   UNL A   1       0.148  -1.068  -0.036  0.00  0.00    +0.192 A 
ATOM     21  N   UNL A   1       0.949  -0.261   0.607  0.00  0.00    -0.122 NA
ATOM     22  N   UNL A   1       0.344   0.975   0.646  0.00  0.00    -0.128 NA
ATOM     23  C   UNL A   1      -0.836   0.893   0.047  0.00  0.00    +0.165 A 
BRANCH  23  24
ATOM     24  C   UNL A   1      -1.777   2.017  -0.118  0.00  0.00    +0.019 A 
ATOM     25  C   UNL A   1      -1.273   3.311  -0.292  0.00  0.00    +0.012 A 
ATOM     26  C   UNL A   1      -2.133   4.400  -0.469  0.00  0.00    +0.001 A 
ATOM     27  C   UNL A   1      -3.511   4.208  -0.471  0.00  0.00    +0.000 A 
ATOM     28  C   UNL A   1      -4.032   2.932  -0.265  0.00  0.00    +0.001 A 
ATOM     29  C   UNL A   1      -3.171   1.849  -0.066  0.00  0.00    +0.012 A 
ENDBRANCH  23  24
ENDBRANCH  17  20
ENDBRANCH  16  17
ENDBRANCH   1  16
TORSDOF 7
