REMARK  Name = CS49
REMARK  10 active torsions:
REMARK  status: ('A' for Active; 'I' for Inactive)
REMARK    1  A    between atoms: O_1  and  C_2
REMARK    2  A    between atoms: O_1  and  C_30
REMARK    3  A    between atoms: C_9  and  S_11
REMARK    4  A    between atoms: S_11  and  C_12
REMARK    5  A    between atoms: C_12  and  C_13
REMARK    6  A    between atoms: N_15  and  C_16
REMARK    7  A    between atoms: C_17  and  C_29
REMARK    8  A    between atoms: N_18  and  C_28
REMARK    9  A    between atoms: N_19  and  C_22
REMARK   10  A    between atoms: C_30  and  C_31
REMARK                            x       y       z     vdW  Elec       q    Type
REMARK                         _______ _______ _______ _____ _____    ______ ____
ROOT
ATOM      1  C   UNL A   1      -6.694   1.264   6.556  0.00  0.00    +0.228 C 
ATOM      2  O   UNL A   1      -6.676   2.458   6.860  0.00  0.00    -0.275 OA
ATOM      3  N   UNL A   1      -7.616   0.371   7.072  0.00  0.00    -0.279 N 
ATOM      4  H   UNL A   1      -7.293  -0.578   7.234  0.00  0.00    +0.155 HD
ENDROOT
BRANCH   3   5
ATOM      5  C   UNL A   1      -8.724   0.758   7.790  0.00  0.00    +0.121 A 
ATOM      6  C   UNL A   1      -9.652   1.697   7.532  0.00  0.00    +0.059 A 
ATOM      7  N   UNL A   1     -10.678   1.700   8.486  0.00  0.00    -0.282 N 
ATOM      8  N   UNL A   1     -10.232   0.862   9.532  0.00  0.00    -0.216 N 
ATOM      9  C   UNL A   1      -9.099   0.166   9.103  0.00  0.00    +0.293 A 
ATOM     10  O   UNL A   1      -8.472  -0.743   9.639  0.00  0.00    -0.264 OA
ATOM     11  C   UNL A   1     -11.436   2.898   8.837  0.00  0.00    +0.171 C 
ATOM     12  C   UNL A   1      -9.715   2.602   6.348  0.00  0.00    +0.067 C 
BRANCH   8  13
ATOM     13  C   UNL A   1     -10.977   0.600  10.691  0.00  0.00    +0.067 A 
ATOM     14  C   UNL A   1     -10.358   0.716  11.941  0.00  0.00    +0.028 A 
ATOM     15  C   UNL A   1     -11.086   0.497  13.114  0.00  0.00    +0.002 A 
ATOM     16  C   UNL A   1     -12.425   0.118  13.043  0.00  0.00    +0.000 A 
ATOM     17  C   UNL A   1     -13.045  -0.011  11.801  0.00  0.00    +0.002 A 
ATOM     18  C   UNL A   1     -12.330   0.253  10.627  0.00  0.00    +0.028 A 
ENDBRANCH   8  13
ENDBRANCH   3   5
BRANCH   1  19
ATOM     19  C   UNL A   1      -5.582   0.670   5.705  0.00  0.00    +0.172 C 
BRANCH  19  20
ATOM     20  S   UNL A   1      -6.099  -0.697   4.629  0.00  0.00    -0.089 S 
BRANCH  20  28
ATOM     21  C   UNL A   1     -10.827   1.984   1.080  0.00  0.00    +0.122 A 
ATOM     22  C   UNL A   1     -10.384   3.043   1.867  0.00  0.00    +0.048 A 
ATOM     23  C   UNL A   1      -9.315   2.874   2.756  0.00  0.00    +0.032 A 
ATOM     24  C   UNL A   1      -8.680   1.622   2.870  0.00  0.00    +0.080 A 
ATOM     25  C   UNL A   1      -9.141   0.567   2.086  0.00  0.00    +0.043 A 
ATOM     26  C   UNL A   1     -10.205   0.730   1.177  0.00  0.00    +0.062 A 
ATOM     27  S   UNL A   1      -8.214  -0.840   2.458  0.00  0.00    -0.061 S 
ATOM     28  C   UNL A   1      -7.321   0.052   3.619  0.00  0.00    +0.136 A 
ATOM     29  N   UNL A   1      -7.625   1.322   3.718  0.00  0.00    -0.233 NA
BRANCH  21  30
ATOM     30  O   UNL A   1     -11.859   2.045   0.179  0.00  0.00    -0.492 OA
BRANCH  30  31
ATOM     31  C   UNL A   1     -12.564   3.286   0.087  0.00  0.00    +0.226 C 
ATOM     32  C   UNL A   1     -13.685   3.133  -0.926  0.00  0.00    +0.048 C 
ENDBRANCH  30  31
ENDBRANCH  21  30
ENDBRANCH  20  28
ENDBRANCH  19  20
ENDBRANCH   1  19
TORSDOF 7
