REMARK  Name = CS5
REMARK  2 active torsions:
REMARK  status: ('A' for Active; 'I' for Inactive)
REMARK    1  A    between atoms: C_5  and  C_8
REMARK    2  A    between atoms: C_14  and  C_16
REMARK                            x       y       z     vdW  Elec       q    Type
REMARK                         _______ _______ _______ _____ _____    ______ ____
ROOT
ATOM      1  C   UNL A   1       4.708  -0.078  -0.458  0.00  0.00    +0.249 C 
ATOM      2  O   UNL A   1       5.282   0.982  -0.722  0.00  0.00    -0.270 OA
ATOM      3  N   UNL A   1       5.332  -1.219   0.001  0.00  0.00    -0.265 N 
ATOM      4  C   UNL A   1       6.699  -1.242   0.179  0.00  0.00    +0.147 A 
ATOM      5  N   UNL A   1       7.430  -2.243  -0.305  0.00  0.00    -0.158 NA
ATOM      6  N   UNL A   1       8.695  -1.851  -0.067  0.00  0.00    -0.280 N 
ATOM      7  C   UNL A   1       8.781  -0.763   0.770  0.00  0.00    +0.041 A 
ATOM      8  C   UNL A   1       7.485  -0.321   0.901  0.00  0.00    +0.068 A 
ATOM      9  H   UNL A   1       4.929  -2.128  -0.164  0.00  0.00    +0.157 HD
ATOM     10  H   UNL A   1       9.452  -2.384  -0.473  0.00  0.00    +0.189 HD
ENDROOT
BRANCH   1  15
ATOM     11 BR   UNL A   1      -1.442  -0.066  -1.019  0.00  0.00    -0.050 Br
ATOM     12  C   UNL A   1       0.446  -0.092  -0.898  0.00  0.00    +0.018 A 
ATOM     13  C   UNL A   1       1.128  -1.302  -0.984  0.00  0.00    +0.016 A 
ATOM     14  C   UNL A   1       2.521  -1.341  -0.858  0.00  0.00    +0.014 A 
ATOM     15  C   UNL A   1       3.232  -0.143  -0.653  0.00  0.00    +0.037 A 
ATOM     16  C   UNL A   1       2.531   1.069  -0.603  0.00  0.00    +0.014 A 
ATOM     17  C   UNL A   1       1.140   1.097  -0.717  0.00  0.00    +0.016 A 
ENDBRANCH   1  15
BRANCH   7  18
ATOM     18  C   UNL A   1      10.075  -0.253   1.330  0.00  0.00    +0.037 C 
ATOM     19  C   UNL A   1      10.985   0.291   0.220  0.00  0.00    +0.010 C 
ATOM     20  C   UNL A   1      12.346   0.720   0.747  0.00  0.00    +0.001 C 
ATOM     21  C   UNL A   1      13.026  -0.397   1.529  0.00  0.00    +0.000 C 
ATOM     22  C   UNL A   1      12.146  -0.881   2.676  0.00  0.00    +0.001 C 
ATOM     23  C   UNL A   1      10.777  -1.330   2.177  0.00  0.00    +0.010 C 
ENDBRANCH   7  18
TORSDOF 2
