REMARK  Name = CS53
REMARK  7 active torsions:
REMARK  status: ('A' for Active; 'I' for Inactive)
REMARK    1  A    between atoms: N_1  and  C_2
REMARK    2  A    between atoms: C_6  and  S_7
REMARK    3  A    between atoms: S_7  and  C_8
REMARK    4  A    between atoms: C_8  and  C_9
REMARK    5  A    between atoms: N_11  and  C_12
REMARK    6  A    between atoms: C_15  and  O_18
REMARK    7  A    between atoms: O_18  and  C_19
REMARK                            x       y       z     vdW  Elec       q    Type
REMARK                         _______ _______ _______ _____ _____    ______ ____
ROOT
ATOM      1  C   UNL A   1      -2.461  -4.520   0.020  0.00  0.00    +0.228 C 
ATOM      2  O   UNL A   1      -1.512  -5.251   0.299  0.00  0.00    -0.275 OA
ATOM      3  N   UNL A   1      -3.782  -4.913  -0.122  0.00  0.00    -0.285 N 
ATOM      4  H   UNL A   1      -4.409  -4.258  -0.586  0.00  0.00    +0.155 HD
ENDROOT
BRANCH   3   5
ATOM      5  C   UNL A   1      -4.279  -6.221   0.058  0.00  0.00    +0.034 A 
ATOM      6  C   UNL A   1      -3.574  -7.219   0.726  0.00  0.00    +0.027 A 
ATOM      7  C   UNL A   1      -4.080  -8.519   0.818  0.00  0.00    +0.047 A 
ATOM      8  C   UNL A   1      -5.307  -8.837   0.243  0.00  0.00    +0.120 A 
ATOM      9  C   UNL A   1      -6.042  -7.830  -0.386  0.00  0.00    +0.047 A 
ATOM     10  C   UNL A   1      -5.538  -6.524  -0.471  0.00  0.00    +0.027 A 
BRANCH   8  11
ATOM     11  O   UNL A   1      -5.882 -10.078   0.227  0.00  0.00    -0.495 OA
ATOM     12  C   UNL A   1      -5.118 -11.136   0.800  0.00  0.00    +0.277 C 
ENDBRANCH   8  11
ENDBRANCH   3   5
BRANCH   1  13
ATOM     13  C   UNL A   1      -2.227  -3.043  -0.256  0.00  0.00    +0.173 C 
BRANCH  13  14
ATOM     14  S   UNL A   1      -1.732  -2.795  -1.988  0.00  0.00    -0.075 S 
BRANCH  14  20
ATOM     15  N   UNL A   1      -3.315  -3.518  -4.097  0.00  0.00    -0.223 N 
ATOM     16  C   UNL A   1      -2.283  -3.770  -5.063  0.00  0.00    +0.177 C 
ATOM     17  N   UNL A   1      -4.611  -3.711  -4.404  0.00  0.00    -0.043 NA
ATOM     18  N   UNL A   1      -5.281  -3.426  -3.294  0.00  0.00    -0.022 NA
ATOM     19  N   UNL A   1      -4.425  -3.060  -2.283  0.00  0.00    -0.102 NA
ATOM     20  C   UNL A   1      -3.218  -3.119  -2.797  0.00  0.00    +0.209 A 
ENDBRANCH  14  20
ENDBRANCH  13  14
ENDBRANCH   1  13
TORSDOF 5
