REMARK  Name = CS55
REMARK  9 active torsions:
REMARK  status: ('A' for Active; 'I' for Inactive)
REMARK    1  A    between atoms: C_2  and  C_3
REMARK    2  A    between atoms: C_2  and  C_4
REMARK    3  A    between atoms: C_7  and  O_20
REMARK    4  A    between atoms: C_8  and  C_9
REMARK    5  A    between atoms: C_9  and  C_10
REMARK    6  A    between atoms: C_11  and  O_12
REMARK    7  A    between atoms: C_17  and  O_18
REMARK    8  A    between atoms: O_20  and  C_21
REMARK    9  A    between atoms: C_21  and  C_22
REMARK                            x       y       z     vdW  Elec       q    Type
REMARK                         _______ _______ _______ _____ _____    ______ ____
ROOT
ATOM      1  C   UNL A   1       6.120  -3.007  -0.143  0.00  0.00    +0.084 C 
ENDROOT
BRANCH   1   2
ATOM      2  C   UNL A   1       7.318  -2.221  -0.599  0.00  0.00    +0.080 A 
ATOM      3  C   UNL A   1       7.781  -1.050  -0.037  0.00  0.00    +0.224 A 
ATOM      4  N   UNL A   1       8.828  -0.347  -0.500  0.00  0.00    -0.179 NA
ATOM      5  C   UNL A   1       9.454  -0.829  -1.569  0.00  0.00    +0.219 A 
ATOM      6  N   UNL A   1      10.499  -0.092  -2.091  0.00  0.00    -0.327 N 
ATOM      7  N   UNL A   1       9.111  -1.944  -2.206  0.00  0.00    -0.179 NA
ATOM      8  C   UNL A   1       8.068  -2.602  -1.688  0.00  0.00    +0.224 A 
ATOM      9  H   UNL A   1      10.404   0.869  -1.784  0.00  0.00    +0.145 HD
ATOM     10  H   UNL A   1      10.578  -0.255  -3.084  0.00  0.00    +0.145 HD
BRANCH   3  11
ATOM     11  O   UNL A   1       7.218  -0.469   1.060  0.00  0.00    -0.492 OA
ATOM     12  H   UNL A   1       6.496  -1.016   1.385  0.00  0.00    +0.294 HD
ENDBRANCH   3  11
BRANCH   8  13
ATOM     13  O   UNL A   1       7.814  -3.754  -2.355  0.00  0.00    -0.492 OA
ATOM     14  H   UNL A   1       8.503  -3.716  -3.042  0.00  0.00    +0.294 HD
ENDBRANCH   8  13
ENDBRANCH   1   2
BRANCH   1  19
ATOM     15  C   UNL A   1       2.929  -0.968  -0.695  0.00  0.00    +0.018 A 
ATOM     16  C   UNL A   1       2.464  -1.498  -1.899  0.00  0.00    +0.015 A 
ATOM     17  C   UNL A   1       3.140  -2.554  -2.515  0.00  0.00    +0.046 A 
ATOM     18  C   UNL A   1       4.303  -3.084  -1.946  0.00  0.00    +0.124 A 
ATOM     19  C   UNL A   1       4.807  -2.536  -0.749  0.00  0.00    -0.000 A 
ATOM     20  C   UNL A   1       4.095  -1.491  -0.125  0.00  0.00    +0.018 A 
BRANCH  15  22
ATOM     21  O   UNL A   1       1.126   0.551  -0.570  0.00  0.00    -0.292 OA
ATOM     22  C   UNL A   1       2.160   0.139  -0.050  0.00  0.00    +0.160 C 
ATOM     23  C   UNL A   1       2.675   0.730   1.237  0.00  0.00    +0.091 C 
ENDBRANCH  15  22
BRANCH  18  24
ATOM     24  O   UNL A   1       4.959  -4.179  -2.440  0.00  0.00    -0.492 OA
BRANCH  24  25
ATOM     25  C   UNL A   1       4.812  -4.463  -3.830  0.00  0.00    +0.226 C 
ATOM     26  C   UNL A   1       5.594  -5.728  -4.143  0.00  0.00    +0.048 C 
ENDBRANCH  24  25
ENDBRANCH  18  24
ENDBRANCH   1  19
TORSDOF 7
