REMARK  Name = CS58
REMARK  6 active torsions:
REMARK  status: ('A' for Active; 'I' for Inactive)
REMARK    1  A    between atoms: N_2  and  C_4
REMARK    2  A    between atoms: C_7  and  C_10
REMARK    3  A    between atoms: N_11  and  C_12
REMARK    4  A    between atoms: C_18  and  S_21
REMARK    5  A    between atoms: S_21  and  C_22
REMARK    6  A    between atoms: C_22  and  C_23
REMARK                            x       y       z     vdW  Elec       q    Type
REMARK                         _______ _______ _______ _____ _____    ______ ____
ROOT
ATOM      1  C   UNL A   1       5.146  -0.792  -4.915  0.00  0.00    +0.169 A 
ATOM      2  N   UNL A   1       5.715   0.306  -5.574  0.00  0.00    -0.270 N 
ATOM      3  C   UNL A   1       6.321  -0.244  -6.702  0.00  0.00    +0.197 A 
ATOM      4  N   UNL A   1       6.215  -1.552  -6.676  0.00  0.00    -0.122 NA
ATOM      5  N   UNL A   1       5.496  -1.896  -5.554  0.00  0.00    -0.128 NA
ENDROOT
BRANCH   1   9
ATOM      6  C   UNL A   1       2.963  -0.494  -1.230  0.00  0.00    +0.075 A 
ATOM      7  C   UNL A   1       2.711   0.420  -2.258  0.00  0.00    +0.029 A 
ATOM      8  C   UNL A   1       3.342   0.255  -3.496  0.00  0.00    +0.013 A 
ATOM      9  C   UNL A   1       4.299  -0.756  -3.703  0.00  0.00    +0.020 A 
ATOM     10  C   UNL A   1       4.489  -1.701  -2.676  0.00  0.00    +0.013 A 
ATOM     11  C   UNL A   1       3.825  -1.577  -1.448  0.00  0.00    +0.029 A 
BRANCH   6  13
ATOM     12  O   UNL A   1       1.644   0.720   0.245  0.00  0.00    -0.173 OA
ATOM     13  N   UNL A   1       2.333  -0.299   0.081  0.00  0.00    -0.187 N 
ATOM     14  O   UNL A   1       2.535  -1.156   0.954  0.00  0.00    -0.777 OA
ENDBRANCH   6  13
ENDBRANCH   1   9
BRANCH   2  15
ATOM     15  C   UNL A   1       5.713   1.673  -5.148  0.00  0.00    +0.051 A 
ATOM     16  C   UNL A   1       5.791   1.989  -3.782  0.00  0.00    +0.026 A 
ATOM     17  C   UNL A   1       5.678   3.309  -3.349  0.00  0.00    +0.002 A 
ATOM     18  C   UNL A   1       5.577   4.339  -4.278  0.00  0.00    +0.000 A 
ATOM     19  C   UNL A   1       5.553   4.044  -5.641  0.00  0.00    +0.002 A 
ATOM     20  C   UNL A   1       5.592   2.719  -6.074  0.00  0.00    +0.026 A 
ENDBRANCH   2  15
BRANCH   3  21
ATOM     21  S   UNL A   1       7.339   0.656  -7.786  0.00  0.00    -0.076 S 
BRANCH  21  22
ATOM     22  C   UNL A   1       7.394  -0.308  -9.306  0.00  0.00    +0.173 C 
BRANCH  22  23
ATOM     23  C   UNL A   1       6.080  -0.449 -10.060  0.00  0.00    +0.226 C 
ATOM     24  O   UNL A   1       4.997  -0.091  -9.588  0.00  0.00    -0.275 OA
ATOM     25  N   UNL A   1       6.175  -0.982 -11.351  0.00  0.00    -0.296 N 
ATOM     26  C   UNL A   1       7.399  -1.517 -11.966  0.00  0.00    +0.136 C 
ATOM     27  C   UNL A   1       7.444  -1.226 -13.473  0.00  0.00    +0.178 C 
ATOM     28  O   UNL A   1       6.248  -1.665 -14.129  0.00  0.00    -0.377 OA
ATOM     29  C   UNL A   1       5.098  -1.006 -13.574  0.00  0.00    +0.178 C 
ATOM     30  C   UNL A   1       4.952  -1.326 -12.083  0.00  0.00    +0.136 C 
ENDBRANCH  22  23
ENDBRANCH  21  22
ENDBRANCH   3  21
TORSDOF 6
