REMARK  Name = CS59
REMARK  11 active torsions:
REMARK  status: ('A' for Active; 'I' for Inactive)
REMARK    1  A    between atoms: N_1  and  C_2
REMARK    2  A    between atoms: C_3  and  C_22
REMARK    3  A    between atoms: C_6  and  S_7
REMARK    4  A    between atoms: S_7  and  C_8
REMARK    5  A    between atoms: C_8  and  C_9
REMARK    6  A    between atoms: N_11  and  C_12
REMARK    7  A    between atoms: C_15  and  C_18
REMARK    8  A    between atoms: C_18  and  O_20
REMARK    9  A    between atoms: O_20  and  C_21
REMARK   10  A    between atoms: C_25  and  N_28
REMARK   11  A    between atoms: C_29  and  C_31
REMARK                            x       y       z     vdW  Elec       q    Type
REMARK                         _______ _______ _______ _____ _____    ______ ____
ROOT
ATOM      1  N   UNL A   1       0.854   0.036  -0.074  0.00  0.00    -0.305 N 
ATOM      2  C   UNL A   1       2.295   0.070  -0.117  0.00  0.00    +0.153 C 
ATOM      3  C   UNL A   1       0.019  -1.066  -0.007  0.00  0.00    +0.165 A 
ATOM      4  N   UNL A   1      -1.231  -0.627  -0.005  0.00  0.00    -0.128 NA
ATOM      5  N   UNL A   1      -1.219   0.750   0.008  0.00  0.00    -0.122 NA
ATOM      6  C   UNL A   1       0.033   1.130  -0.051  0.00  0.00    +0.192 A 
ENDROOT
BRANCH   3   7
ATOM      7  C   UNL A   1       0.429  -2.473   0.073  0.00  0.00    +0.019 A 
ATOM      8  C   UNL A   1       1.507  -2.856   0.875  0.00  0.00    +0.013 A 
ATOM      9  C   UNL A   1       1.962  -4.177   0.897  0.00  0.00    +0.024 A 
ATOM     10  C   UNL A   1       1.318  -5.168   0.163  0.00  0.00    +0.033 A 
ATOM     11  C   UNL A   1       0.183  -4.812  -0.580  0.00  0.00    +0.024 A 
ATOM     12  C   UNL A   1      -0.255  -3.475  -0.626  0.00  0.00    +0.013 A 
BRANCH  10  13
ATOM     13  N   UNL A   1       1.754  -6.512   0.136  0.00  0.00    -0.286 N 
ATOM     14  C   UNL A   1       2.888  -7.025   0.748  0.00  0.00    +0.214 C 
ATOM     15  O   UNL A   1       3.705  -6.404   1.420  0.00  0.00    -0.276 OA
ATOM     16  C   UNL A   1       3.087  -8.501   0.522  0.00  0.00    +0.109 C 
ATOM     17  H   UNL A   1       1.196  -7.151  -0.418  0.00  0.00    +0.155 HD
ENDBRANCH  10  13
ENDBRANCH   3   7
BRANCH   6  18
ATOM     18  S   UNL A   1       0.606   2.760  -0.033  0.00  0.00    -0.077 S 
BRANCH  18  19
ATOM     19  C   UNL A   1      -0.296   3.431   1.391  0.00  0.00    +0.173 C 
BRANCH  19  20
ATOM     20  C   UNL A   1       0.237   2.836   2.683  0.00  0.00    +0.228 C 
ATOM     21  O   UNL A   1       1.235   3.308   3.228  0.00  0.00    -0.275 OA
ATOM     22  N   UNL A   1      -0.472   1.724   3.114  0.00  0.00    -0.285 N 
ATOM     23  H   UNL A   1      -1.142   1.325   2.458  0.00  0.00    +0.155 HD
BRANCH  22  24
ATOM     24  C   UNL A   1      -0.202   0.962   4.269  0.00  0.00    +0.033 A 
ATOM     25  C   UNL A   1       0.604   1.409   5.320  0.00  0.00    +0.024 A 
ATOM     26  C   UNL A   1       0.883   0.576   6.409  0.00  0.00    +0.017 A 
ATOM     27  C   UNL A   1       0.356  -0.718   6.464  0.00  0.00    +0.059 A 
ATOM     28  C   UNL A   1      -0.485  -1.155   5.431  0.00  0.00    +0.017 A 
ATOM     29  C   UNL A   1      -0.770  -0.314   4.347  0.00  0.00    +0.024 A 
BRANCH  27  30
ATOM     30  C   UNL A   1       0.724  -1.583   7.617  0.00  0.00    +0.339 C 
ATOM     31  O   UNL A   1       1.451  -1.229   8.532  0.00  0.00    -0.245 OA
BRANCH  30  32
ATOM     32  O   UNL A   1       0.151  -2.807   7.487  0.00  0.00    -0.465 OA
ATOM     33  C   UNL A   1       0.479  -3.726   8.539  0.00  0.00    +0.280 C 
ENDBRANCH  30  32
ENDBRANCH  27  30
ENDBRANCH  22  24
ENDBRANCH  19  20
ENDBRANCH  18  19
ENDBRANCH   6  18
TORSDOF 8
