REMARK  Name = CS64
REMARK  7 active torsions:
REMARK  status: ('A' for Active; 'I' for Inactive)
REMARK    1  A    between atoms: N_1  and  C_2
REMARK    2  A    between atoms: C_3  and  C_12
REMARK    3  A    between atoms: C_6  and  S_7
REMARK    4  A    between atoms: S_7  and  C_8
REMARK    5  A    between atoms: C_8  and  C_9
REMARK    6  A    between atoms: C_12  and  O_13
REMARK    7  A    between atoms: O_13  and  C_14
REMARK                            x       y       z     vdW  Elec       q    Type
REMARK                         _______ _______ _______ _____ _____    ______ ____
ROOT
ATOM      1  N   UNL A   1      -0.231  -0.263  -1.094  0.00  0.00    -0.306 N 
ATOM      2  C   UNL A   1      -0.234  -0.559  -2.500  0.00  0.00    +0.153 C 
ATOM      3  C   UNL A   1       0.097  -1.101  -0.038  0.00  0.00    +0.172 A 
ATOM      4  N   UNL A   1      -0.003  -0.422   1.089  0.00  0.00    -0.130 NA
ATOM      5  N   UNL A   1      -0.395   0.861   0.792  0.00  0.00    -0.122 NA
ATOM      6  C   UNL A   1      -0.516   0.959  -0.498  0.00  0.00    +0.192 A 
ENDROOT
BRANCH   6   7
ATOM      7  S   UNL A   1      -1.045   2.399  -1.324  0.00  0.00    -0.077 S 
BRANCH   7   8
ATOM      8  C   UNL A   1       0.167   3.696  -0.868  0.00  0.00    +0.172 C 
BRANCH   8   9
ATOM      9  C   UNL A   1       1.561   3.382  -1.350  0.00  0.00    +0.221 C 
ATOM     10  O   UNL A   1       2.017   3.720  -2.460  0.00  0.00    -0.275 OA
ATOM     11  N   UNL A   1       2.339   2.721  -0.460  0.00  0.00    -0.329 N 
ATOM     12  H   UNL A   1       1.997   2.415   0.450  0.00  0.00    +0.145 HD
ATOM     13  H   UNL A   1       3.278   2.478  -0.731  0.00  0.00    +0.145 HD
ENDBRANCH   8   9
ENDBRANCH   7   8
ENDBRANCH   6   7
BRANCH   3  14
ATOM     14  C   UNL A   1       0.475  -2.550  -0.092  0.00  0.00    +0.305 C 
BRANCH  14  15
ATOM     15  O   UNL A   1       1.897  -2.617  -0.199  0.00  0.00    -0.482 OA
BRANCH  15  16
ATOM     16  C   UNL A   1       2.431  -3.888  -0.293  0.00  0.00    +0.147 A 
ATOM     17  C   UNL A   1       1.865  -4.974   0.395  0.00  0.00    +0.048 A 
ATOM     18  C   UNL A   1       2.366  -6.255   0.208  0.00  0.00    +0.004 A 
ATOM     19  C   UNL A   1       3.450  -6.451  -0.643  0.00  0.00    +0.010 A 
ATOM     20  C   UNL A   1       4.044  -5.367  -1.311  0.00  0.00    +0.004 A 
ATOM     21  C   UNL A   1       3.548  -4.054  -1.139  0.00  0.00    +0.113 A 
ATOM     22  N   UNL A   1       4.092  -3.013  -1.818  0.00  0.00    -0.251 NA
ATOM     23  C   UNL A   1       5.129  -3.245  -2.652  0.00  0.00    +0.111 A 
ATOM     24  C   UNL A   1       5.678  -4.492  -2.865  0.00  0.00    +0.020 A 
ATOM     25  C   UNL A   1       5.123  -5.567  -2.187  0.00  0.00    +0.012 A 
ENDBRANCH  15  16
ENDBRANCH  14  15
ENDBRANCH   3  14
TORSDOF 6
