REMARK  Name = CS65
REMARK  7 active torsions:
REMARK  status: ('A' for Active; 'I' for Inactive)
REMARK    1  A    between atoms: C_2  and  C_3
REMARK    2  A    between atoms: C_5  and  N_10
REMARK    3  A    between atoms: N_10  and  C_11
REMARK    4  A    between atoms: N_10  and  S_21
REMARK    5  A    between atoms: C_11  and  C_12
REMARK    6  A    between atoms: N_17  and  C_20
REMARK    7  A    between atoms: S_21  and  C_24
REMARK                            x       y       z     vdW  Elec       q    Type
REMARK                         _______ _______ _______ _____ _____    ______ ____
ROOT
ATOM      1  N   UNL A   1       4.327  -1.072   4.495  0.00  0.00    -0.193 N 
ENDROOT
BRANCH   1   4
ATOM      2  C   UNL A   1       4.682   1.727   2.041  0.00  0.00    +0.057 A 
ATOM      3  C   UNL A   1       4.949   0.695   2.961  0.00  0.00    +0.038 A 
ATOM      4  C   UNL A   1       3.916  -0.001   3.616  0.00  0.00    +0.071 A 
ATOM      5  C   UNL A   1       2.593   0.406   3.397  0.00  0.00    +0.064 A 
ATOM      6  C   UNL A   1       2.317   1.452   2.501  0.00  0.00    +0.022 A 
ATOM      7  C   UNL A   1       3.350   2.100   1.821  0.00  0.00    +0.014 A 
ATOM      8 CL   UNL A   1       1.247  -0.321   4.192  0.00  0.00    -0.082 Cl
BRANCH   2  10
ATOM      9  F   UNL A   1       7.036   1.962   1.601  0.00  0.00    -0.166 F 
ATOM     10  C   UNL A   1       5.792   2.401   1.266  0.00  0.00    +0.417 C 
ATOM     11  F   UNL A   1       5.810   3.751   1.430  0.00  0.00    -0.166 F 
ATOM     12  F   UNL A   1       5.676   2.191  -0.076  0.00  0.00    -0.166 F 
ENDBRANCH   2  10
ENDBRANCH   1   4
BRANCH   1  13
ATOM     13  S   UNL A   1       4.718  -0.683   6.107  0.00  0.00    +0.075 S 
ATOM     14  O   UNL A   1       5.654  -1.696   6.563  0.00  0.00    -0.150 OA
ATOM     15  O   UNL A   1       5.082   0.714   6.170  0.00  0.00    -0.150 OA
BRANCH  13  16
ATOM     16  C   UNL A   1       3.236  -0.902   7.093  0.00  0.00    +0.109 A 
ATOM     17  C   UNL A   1       2.934  -2.170   7.610  0.00  0.00    +0.029 A 
ATOM     18  C   UNL A   1       1.933  -2.311   8.575  0.00  0.00    +0.002 A 
ATOM     19  C   UNL A   1       1.241  -1.195   9.040  0.00  0.00    +0.000 A 
ATOM     20  C   UNL A   1       1.540   0.069   8.529  0.00  0.00    +0.002 A 
ATOM     21  C   UNL A   1       2.540   0.220   7.558  0.00  0.00    +0.029 A 
ENDBRANCH  13  16
ENDBRANCH   1  13
BRANCH   1  22
ATOM     22  C   UNL A   1       3.935  -2.470   4.216  0.00  0.00    +0.227 C 
BRANCH  22  23
ATOM     23  C   UNL A   1       4.297  -3.062   2.858  0.00  0.00    +0.235 C 
ATOM     24  O   UNL A   1       3.473  -3.065   1.942  0.00  0.00    -0.274 OA
ATOM     25  N   UNL A   1       5.545  -3.697   2.731  0.00  0.00    -0.298 N 
ATOM     26  C   UNL A   1       5.737  -4.487   1.504  0.00  0.00    +0.123 C 
ATOM     27  C   UNL A   1       7.080  -5.238   1.430  0.00  0.00    +0.103 C 
ATOM     28  N   UNL A   1       8.255  -4.408   1.750  0.00  0.00    -0.302 NA
ATOM     29  C   UNL A   1       8.056  -3.822   3.088  0.00  0.00    +0.103 C 
ATOM     30  C   UNL A   1       6.739  -3.040   3.278  0.00  0.00    +0.123 C 
ATOM     31  C   UNL A   1       8.486  -3.384   0.730  0.00  0.00    +0.105 C 
ENDBRANCH  22  23
ENDBRANCH   1  22
TORSDOF 6
