REMARK  Name = CS66
REMARK  9 active torsions:
REMARK  status: ('A' for Active; 'I' for Inactive)
REMARK    1  A    between atoms: N_1  and  C_2
REMARK    2  A    between atoms: C_4  and  C_8
REMARK    3  A    between atoms: C_8  and  C_10
REMARK    4  A    between atoms: C_11  and  C_13
REMARK    5  A    between atoms: C_13  and  S_14
REMARK    6  A    between atoms: S_14  and  C_15
REMARK    7  A    between atoms: C_18  and  C_22
REMARK    8  A    between atoms: N_19  and  C_20
REMARK    9  A    between atoms: C_20  and  C_21
REMARK                            x       y       z     vdW  Elec       q    Type
REMARK                         _______ _______ _______ _____ _____    ______ ____
ROOT
ATOM      1  C   UNL A   1       3.592  -1.234   0.716  0.00  0.00    +0.173 C 
ENDROOT
BRANCH   1   3
ATOM      2  N   UNL A   1       3.219   1.168   0.272  0.00  0.00    -0.285 N 
ATOM      3  C   UNL A   1       2.732  -0.122   0.129  0.00  0.00    +0.228 C 
ATOM      4  O   UNL A   1       1.649  -0.409  -0.383  0.00  0.00    -0.275 OA
ATOM      5  H   UNL A   1       4.197   1.248   0.527  0.00  0.00    +0.155 HD
BRANCH   2   6
ATOM      6  C   UNL A   1       2.552   2.356  -0.105  0.00  0.00    +0.034 A 
ATOM      7  C   UNL A   1       1.176   2.408  -0.351  0.00  0.00    +0.034 A 
ATOM      8  C   UNL A   1       0.569   3.591  -0.788  0.00  0.00    +0.019 A 
ATOM      9  C   UNL A   1       1.336   4.752  -0.925  0.00  0.00    +0.011 A 
ATOM     10  C   UNL A   1       2.702   4.721  -0.645  0.00  0.00    +0.003 A 
ATOM     11  C   UNL A   1       3.307   3.528  -0.234  0.00  0.00    +0.023 A 
BRANCH   8  12
ATOM     12  C   UNL A   1      -0.878   3.650  -1.116  0.00  0.00    +0.160 C 
ATOM     13  O   UNL A   1      -1.470   4.725  -1.046  0.00  0.00    -0.292 OA
ATOM     14  C   UNL A   1      -1.599   2.399  -1.557  0.00  0.00    +0.091 C 
ENDBRANCH   8  12
ENDBRANCH   2   6
ENDBRANCH   1   3
BRANCH   1  15
ATOM     15  S   UNL A   1       5.377  -0.895   0.667  0.00  0.00    -0.077 S 
BRANCH  15  16
ATOM     16  C   UNL A   1       5.998  -2.392   1.289  0.00  0.00    +0.192 A 
ATOM     17  N   UNL A   1       5.224  -3.391   1.639  0.00  0.00    -0.122 NA
ATOM     18  N   UNL A   1       6.018  -4.414   2.057  0.00  0.00    -0.128 NA
ATOM     19  C   UNL A   1       7.283  -4.037   1.988  0.00  0.00    +0.165 A 
ATOM     20  N   UNL A   1       7.318  -2.731   1.486  0.00  0.00    -0.302 N 
BRANCH  19  21
ATOM     21  C   UNL A   1       8.394  -4.935   2.353  0.00  0.00    +0.022 A 
ATOM     22  C   UNL A   1       8.244  -6.308   2.110  0.00  0.00    +0.031 A 
ATOM     23  C   UNL A   1       9.240  -7.185   2.511  0.00  0.00    +0.111 A 
ATOM     24  N   UNL A   1      10.373  -6.793   3.124  0.00  0.00    -0.263 NA
ATOM     25  C   UNL A   1      10.499  -5.475   3.369  0.00  0.00    +0.111 A 
ATOM     26  C   UNL A   1       9.550  -4.524   3.017  0.00  0.00    +0.031 A 
ENDBRANCH  19  21
BRANCH  20  27
ATOM     27  C   UNL A   1       8.540  -2.003   1.212  0.00  0.00    +0.122 C 
ATOM     28  C   UNL A   1       8.508  -0.590   0.651  0.00  0.00    +0.027 C 
ENDBRANCH  20  27
ENDBRANCH  15  16
ENDBRANCH   1  15
TORSDOF 7
