REMARK  Name = CS67
REMARK  12 active torsions:
REMARK  status: ('A' for Active; 'I' for Inactive)
REMARK    1  A    between atoms: N_1  and  C_2
REMARK    2  A    between atoms: C_8  and  S_22
REMARK    3  A    between atoms: C_11  and  C_12
REMARK    4  A    between atoms: C_14  and  O_20
REMARK    5  A    between atoms: C_15  and  O_18
REMARK    6  A    between atoms: O_18  and  C_19
REMARK    7  A    between atoms: O_20  and  C_21
REMARK    8  A    between atoms: S_22  and  C_23
REMARK    9  A    between atoms: C_23  and  C_24
REMARK   10  A    between atoms: C_24  and  C_26
REMARK   11  A    between atoms: C_29  and  O_32
REMARK   12  A    between atoms: O_32  and  C_33
REMARK                            x       y       z     vdW  Elec       q    Type
REMARK                         _______ _______ _______ _____ _____    ______ ____
ROOT
ATOM      1  N   UNL A   1      -0.319  -1.305   0.043  0.00  0.00    -0.270 N 
ATOM      2  C   UNL A   1       0.938  -0.687   0.018  0.00  0.00    +0.197 A 
ATOM      3  N   UNL A   1       0.816   0.615  -0.089  0.00  0.00    -0.122 NA
ATOM      4  N   UNL A   1      -0.518   0.903  -0.128  0.00  0.00    -0.128 NA
ATOM      5  C   UNL A   1      -1.218  -0.221  -0.068  0.00  0.00    +0.170 A 
ENDROOT
BRANCH   1   6
ATOM      6  C   UNL A   1      -0.626  -2.700   0.192  0.00  0.00    +0.051 A 
ATOM      7  C   UNL A   1      -1.773  -3.115   0.882  0.00  0.00    +0.026 A 
ATOM      8  C   UNL A   1      -2.085  -4.474   0.999  0.00  0.00    +0.002 A 
ATOM      9  C   UNL A   1      -1.223  -5.438   0.491  0.00  0.00    +0.000 A 
ATOM     10  C   UNL A   1      -0.068  -5.046  -0.172  0.00  0.00    +0.002 A 
ATOM     11  C   UNL A   1       0.213  -3.689  -0.348  0.00  0.00    +0.026 A 
ENDBRANCH   1   6
BRANCH   5  12
ATOM     12  C   UNL A   1      -2.699  -0.232  -0.144  0.00  0.00    +0.023 A 
ATOM     13  C   UNL A   1      -3.417   0.803   0.482  0.00  0.00    +0.061 A 
ATOM     14  C   UNL A   1      -4.832   0.841   0.486  0.00  0.00    +0.162 A 
ATOM     15  C   UNL A   1      -5.539  -0.207  -0.122  0.00  0.00    +0.162 A 
ATOM     16  C   UNL A   1      -4.823  -1.219  -0.776  0.00  0.00    +0.050 A 
ATOM     17  C   UNL A   1      -3.425  -1.206  -0.828  0.00  0.00    +0.015 A 
BRANCH  15  18
ATOM     18  O   UNL A   1      -6.893  -0.415  -0.182  0.00  0.00    -0.491 OA
ATOM     19  C   UNL A   1      -7.770   0.569   0.347  0.00  0.00    +0.277 C 
ENDBRANCH  15  18
BRANCH  14  20
ATOM     20  O   UNL A   1      -5.552   1.851   1.066  0.00  0.00    -0.491 OA
ATOM     21  C   UNL A   1      -4.853   2.950   1.632  0.00  0.00    +0.277 C 
ENDBRANCH  14  20
ENDBRANCH   5  12
BRANCH   2  22
ATOM     22  S   UNL A   1       2.458  -1.518   0.184  0.00  0.00    -0.078 S 
BRANCH  22  23
ATOM     23  C   UNL A   1       3.573  -0.290   0.897  0.00  0.00    +0.157 C 
BRANCH  23  24
ATOM     24  C   UNL A   1       3.289   0.021   2.359  0.00  0.00    +0.173 C 
ATOM     25  O   UNL A   1       2.298  -0.385   2.963  0.00  0.00    -0.291 OA
BRANCH  24  26
ATOM     26  C   UNL A   1       4.301   0.844   3.099  0.00  0.00    +0.018 A 
ATOM     27  C   UNL A   1       5.484   1.299   2.509  0.00  0.00    +0.015 A 
ATOM     28  C   UNL A   1       6.412   2.052   3.243  0.00  0.00    +0.046 A 
ATOM     29  C   UNL A   1       6.169   2.358   4.583  0.00  0.00    +0.120 A 
ATOM     30  C   UNL A   1       4.983   1.910   5.176  0.00  0.00    +0.046 A 
ATOM     31  C   UNL A   1       4.053   1.159   4.444  0.00  0.00    +0.015 A 
BRANCH  29  32
ATOM     32  O   UNL A   1       6.986   3.076   5.406  0.00  0.00    -0.495 OA
ATOM     33  C   UNL A   1       8.192   3.573   4.839  0.00  0.00    +0.277 C 
ENDBRANCH  29  32
ENDBRANCH  24  26
ENDBRANCH  23  24
ENDBRANCH  22  23
ENDBRANCH   2  22
TORSDOF 9
