REMARK  Name = CS68
REMARK  7 active torsions:
REMARK  status: ('A' for Active; 'I' for Inactive)
REMARK    1  A    between atoms: N_1  and  C_2
REMARK    2  A    between atoms: N_8  and  C_31
REMARK    3  A    between atoms: C_9  and  C_30
REMARK    4  A    between atoms: C_10  and  N_13
REMARK    5  A    between atoms: C_14  and  C_16
REMARK    6  A    between atoms: N_17  and  S_21
REMARK    7  A    between atoms: S_21  and  C_24
REMARK                            x       y       z     vdW  Elec       q    Type
REMARK                         _______ _______ _______ _____ _____    ______ ____
ROOT
ATOM      1  N   UNL A   1      -0.434   2.579  -0.284  0.00  0.00    -0.278 N 
ATOM      2  C   UNL A   1       0.152   3.756  -0.718  0.00  0.00    +0.236 C 
ATOM      3  O   UNL A   1       0.996   3.771  -1.618  0.00  0.00    -0.274 OA
ATOM      4  H   UNL A   1      -1.333   2.636   0.176  0.00  0.00    +0.155 HD
ENDROOT
BRANCH   1   8
ATOM      5  N   UNL A   1       0.839  -0.704  -1.200  0.00  0.00    -0.216 N 
ATOM      6  N   UNL A   1      -0.293  -0.579  -2.062  0.00  0.00    -0.282 N 
ATOM      7  C   UNL A   1      -0.825   0.698  -1.815  0.00  0.00    +0.059 A 
ATOM      8  C   UNL A   1      -0.149   1.368  -0.869  0.00  0.00    +0.121 A 
ATOM      9  C   UNL A   1       0.938   0.445  -0.395  0.00  0.00    +0.293 A 
ATOM     10  O   UNL A   1       1.639   0.664   0.580  0.00  0.00    -0.264 OA
ATOM     11  C   UNL A   1      -1.956   1.247  -2.624  0.00  0.00    +0.067 C 
ATOM     12  C   UNL A   1      -0.074  -1.028  -3.445  0.00  0.00    +0.171 C 
BRANCH   5  13
ATOM     13  C   UNL A   1       1.418  -1.967  -0.914  0.00  0.00    +0.067 A 
ATOM     14  C   UNL A   1       0.717  -3.156  -1.171  0.00  0.00    +0.028 A 
ATOM     15  C   UNL A   1       1.309  -4.404  -0.966  0.00  0.00    +0.002 A 
ATOM     16  C   UNL A   1       2.617  -4.482  -0.498  0.00  0.00    +0.000 A 
ATOM     17  C   UNL A   1       3.322  -3.312  -0.220  0.00  0.00    +0.002 A 
ATOM     18  C   UNL A   1       2.722  -2.061  -0.413  0.00  0.00    +0.028 A 
ENDBRANCH   5  13
ENDBRANCH   1   8
BRANCH   2  19
ATOM     19  C   UNL A   1      -0.193   5.032   0.057  0.00  0.00    +0.166 C 
ATOM     20  N   UNL A   1      -0.602   6.314  -0.626  0.00  0.00    -0.165 NA
ATOM     21  C   UNL A   1      -1.034   7.222   0.493  0.00  0.00    +0.110 C 
ATOM     22  C   UNL A   1      -1.406   6.324   1.669  0.00  0.00    +0.019 C 
ATOM     23  C   UNL A   1      -1.234   4.901   1.169  0.00  0.00    +0.031 C 
BRANCH  20  24
ATOM     24  S   UNL A   1      -1.724   6.245  -1.908  0.00  0.00    +0.061 S 
ATOM     25  O   UNL A   1      -2.561   5.090  -1.672  0.00  0.00    -0.153 OA
ATOM     26  O   UNL A   1      -2.308   7.567  -2.058  0.00  0.00    -0.153 OA
BRANCH  24  27
ATOM     27  C   UNL A   1      -0.845   5.967  -3.414  0.00  0.00    +0.105 A 
ATOM     28  C   UNL A   1       0.543   5.982  -3.485  0.00  0.00    +0.028 A 
ATOM     29  C   UNL A   1       1.167   5.753  -4.715  0.00  0.00    +0.002 A 
ATOM     30  C   UNL A   1       0.405   5.563  -5.871  0.00  0.00    +0.000 A 
ATOM     31  C   UNL A   1      -0.986   5.601  -5.806  0.00  0.00    +0.002 A 
ATOM     32  C   UNL A   1      -1.614   5.802  -4.577  0.00  0.00    +0.028 A 
ENDBRANCH  24  27
ENDBRANCH  20  24
ENDBRANCH   2  19
TORSDOF 5
