REMARK  Name = CS69
REMARK  7 active torsions:
REMARK  status: ('A' for Active; 'I' for Inactive)
REMARK    1  A    between atoms: C_2  and  C_4
REMARK    2  A    between atoms: C_7  and  N_13
REMARK    3  A    between atoms: C_8  and  N_10
REMARK    4  A    between atoms: N_13  and  C_14
REMARK    5  A    between atoms: C_14  and  C_15
REMARK    6  A    between atoms: C_15  and  C_16
REMARK    7  A    between atoms: C_16  and  N_17
REMARK                            x       y       z     vdW  Elec       q    Type
REMARK                         _______ _______ _______ _____ _____    ______ ____
ROOT
ATOM      1  C   UNL A   1       2.533   1.381   0.542  0.00  0.00    +0.039 A 
ATOM      2  C   UNL A   1       2.035   1.420   1.845  0.00  0.00    +0.015 A 
ATOM      3  C   UNL A   1       2.805   1.954   2.885  0.00  0.00    +0.026 A 
ATOM      4  C   UNL A   1       4.097   2.455   2.668  0.00  0.00    +0.054 A 
ATOM      5  C   UNL A   1       4.578   2.414   1.333  0.00  0.00    +0.097 A 
ATOM      6  C   UNL A   1       3.803   1.889   0.279  0.00  0.00    +0.043 A 
ENDROOT
BRANCH   1   8
ATOM      7  O   UNL A   1       0.452   0.816  -0.435  0.00  0.00    -0.270 OA
ATOM      8  C   UNL A   1       1.671   0.814  -0.526  0.00  0.00    +0.242 C 
ATOM      9  N   UNL A   1       2.303   0.240  -1.594  0.00  0.00    -0.325 N 
ATOM     10  H   UNL A   1       1.709  -0.240  -2.261  0.00  0.00    +0.145 HD
ATOM     11  H   UNL A   1       3.286   0.008  -1.599  0.00  0.00    +0.145 HD
ENDBRANCH   1   8
BRANCH   5  12
ATOM     12  N   UNL A   1       5.926   2.907   0.986  0.00  0.00    -0.185 N 
ATOM     13  O   UNL A   1       6.734   3.128   1.902  0.00  0.00    -0.172 OA
ATOM     14  O   UNL A   1       6.191   3.045  -0.216  0.00  0.00    -0.777 OA
ENDBRANCH   5  12
BRANCH   4  15
ATOM     15  N   UNL A   1       4.798   3.076   3.690  0.00  0.00    -0.342 N 
ATOM     16  H   UNL A   1       5.810   3.137   3.538  0.00  0.00    +0.146 HD
BRANCH  15  17
ATOM     17  C   UNL A   1       4.367   3.184   5.079  0.00  0.00    +0.103 C 
BRANCH  17  18
ATOM     18  C   UNL A   1       5.474   3.894   5.857  0.00  0.00    +0.034 C 
BRANCH  18  19
ATOM     19  C   UNL A   1       5.165   4.095   7.345  0.00  0.00    +0.086 C 
BRANCH  19  20
ATOM     20  N   UNL A   1       6.236   4.864   8.002  0.00  0.00    -0.298 NA
ATOM     21  C   UNL A   1       7.544   4.173   8.046  0.00  0.00    +0.112 C 
ATOM     22  C   UNL A   1       7.598   3.021   9.060  0.00  0.00    +0.175 C 
ATOM     23  O   UNL A   1       7.292   3.489  10.380  0.00  0.00    -0.377 OA
ATOM     24  C   UNL A   1       6.008   4.120  10.419  0.00  0.00    +0.175 C 
ATOM     25  C   UNL A   1       5.886   5.254   9.385  0.00  0.00    +0.112 C 
ENDBRANCH  19  20
ENDBRANCH  18  19
ENDBRANCH  17  18
ENDBRANCH  15  17
ENDBRANCH   4  15
TORSDOF 7
