MODEL 1
REMARK minimizedAffinity -9.3746748
REMARK minimizedRMSD -1
REMARK  Name = CS102
REMARK  6 active torsions:
REMARK  status: ('A' for Active; 'I' for Inactive)
REMARK    1  A    between atoms: N_1  and  C_3
REMARK    2  A    between atoms: C_7  and  C_9
REMARK    3  A    between atoms: N_11  and  C_20
REMARK    4  A    between atoms: C_20  and  C_21
REMARK    5  A    between atoms: N_23  and  C_24
REMARK    6  A    between atoms: C_24  and  C_25
REMARK                            x       y       z     vdW  Elec       q    Type
REMARK                         _______ _______ _______ _____ _____    ______ ____
ROOT
ATOM      1  C   UNL A   1     -13.550 206.498 113.247  0.00  0.00    +0.099 A 
ATOM      2  N   UNL A   1     -13.483 206.627 114.554  0.00  0.00    -0.167 NA
ATOM      3  N   UNL A   1     -14.417 205.850 115.239  0.00  0.00    -0.220 N 
ATOM      4  C   UNL A   1     -14.990 204.772 114.578  0.00  0.00    +0.276 A 
ATOM      5  O   UNL A   1     -15.085 203.624 114.962  0.00  0.00    -0.266 OA
ATOM      6  C   UNL A   1     -15.621 205.265 113.366  0.00  0.00    +0.050 A 
ATOM      7  C   UNL A   1     -14.871 206.177 112.640  0.00  0.00    +0.015 A 
ATOM      8  C   UNL A   1     -15.496 206.947 111.649  0.00  0.00    +0.011 A 
ATOM      9  C   UNL A   1     -16.886 206.800 111.474  0.00  0.00    +0.001 A 
ATOM     10  C   UNL A   1     -17.635 205.925 112.275  0.00  0.00    +0.001 A 
ATOM     11  C   UNL A   1     -16.995 205.133 113.221  0.00  0.00    +0.014 A 
ENDROOT
BRANCH   1  16
ATOM     12  C   UNL A   1      -9.959 207.123 112.147  0.00  0.00    +0.076 A 
ATOM     13  C   UNL A   1     -10.046 206.869 110.772  0.00  0.00    +0.028 A 
ATOM     14  C   UNL A   1     -11.269 206.485 110.225  0.00  0.00    +0.003 A 
ATOM     15  C   UNL A   1     -12.386 206.320 111.050  0.00  0.00    +0.010 A 
ATOM     16  C   UNL A   1     -12.292 206.509 112.440  0.00  0.00    +0.005 A 
ATOM     17  C   UNL A   1     -11.076 206.945 112.986  0.00  0.00    +0.038 A 
BRANCH  12  18
ATOM     18  N   UNL A   1      -8.711 207.660 112.710  0.00  0.00    -0.187 N 
ATOM     19  O   UNL A   1      -7.852 206.841 113.084  0.00  0.00    -0.173 OA
ATOM     20  O   UNL A   1      -8.591 208.885 112.784  0.00  0.00    -0.777 OA
ENDBRANCH  12  18
ENDBRANCH   1  16
BRANCH   3  21
ATOM     21  C   UNL A   1     -15.005 206.223 116.509  0.00  0.00    +0.242 C 
BRANCH  21  22
ATOM     22  C   UNL A   1     -13.990 206.208 117.663  0.00  0.00    +0.235 C 
ATOM     23  O   UNL A   1     -13.801 205.207 118.358  0.00  0.00    -0.274 OA
ATOM     24  N   UNL A   1     -13.202 207.335 117.774  0.00  0.00    -0.311 N 
ATOM     25  H   UNL A   1     -13.580 208.191 117.378  0.00  0.00    +0.149 HD
BRANCH  24  26
ATOM     26  C   UNL A   1     -12.140 207.426 118.762  0.00  0.00    +0.135 C 
BRANCH  26  27
ATOM     27  C   UNL A   1     -10.830 207.947 118.159  0.00  0.00    +0.135 C 
ATOM     28  O   UNL A   1      -9.761 207.015 118.433  0.00  0.00    -0.375 OA
ATOM     29  C   UNL A   1      -9.061 206.751 117.210  0.00  0.00    +0.160 C 
ATOM     30  C   UNL A   1      -9.469 207.825 116.228  0.00  0.00    +0.030 C 
ATOM     31  C   UNL A   1     -10.890 208.111 116.646  0.00  0.00    +0.035 C 
ENDBRANCH  26  27
ENDBRANCH  24  26
ENDBRANCH  21  22
ENDBRANCH   3  21
TORSDOF 6
ENDMDL
MODEL 2
REMARK minimizedAffinity -9.19765663
REMARK minimizedRMSD -1
REMARK  Name = CS102
REMARK  6 active torsions:
REMARK  status: ('A' for Active; 'I' for Inactive)
REMARK    1  A    between atoms: N_1  and  C_3
REMARK    2  A    between atoms: C_7  and  C_9
REMARK    3  A    between atoms: N_11  and  C_20
REMARK    4  A    between atoms: C_20  and  C_21
REMARK    5  A    between atoms: N_23  and  C_24
REMARK    6  A    between atoms: C_24  and  C_25
REMARK                            x       y       z     vdW  Elec       q    Type
REMARK                         _______ _______ _______ _____ _____    ______ ____
ROOT
ATOM      1  C   UNL A   1     -14.569 203.837 117.073  0.00  0.00    +0.099 A 
ATOM      2  N   UNL A   1     -13.426 203.851 117.725  0.00  0.00    -0.167 NA
ATOM      3  N   UNL A   1     -13.028 205.127 118.122  0.00  0.00    -0.220 N 
ATOM      4  C   UNL A   1     -13.988 206.129 118.184  0.00  0.00    +0.276 A 
ATOM      5  O   UNL A   1     -14.216 206.889 119.103  0.00  0.00    -0.266 OA
ATOM      6  C   UNL A   1     -14.612 206.241 116.878  0.00  0.00    +0.050 A 
ATOM      7  C   UNL A   1     -14.936 205.037 116.273  0.00  0.00    +0.015 A 
ATOM      8  C   UNL A   1     -15.239 205.014 114.904  0.00  0.00    +0.011 A 
ATOM      9  C   UNL A   1     -15.142 206.221 114.184  0.00  0.00    +0.001 A 
ATOM     10  C   UNL A   1     -14.737 207.412 114.806  0.00  0.00    +0.001 A 
ATOM     11  C   UNL A   1     -14.486 207.430 116.172  0.00  0.00    +0.014 A 
ENDROOT
BRANCH   1  16
ATOM     12  C   UNL A   1     -17.738 201.873 117.846  0.00  0.00    +0.076 A 
ATOM     13  C   UNL A   1     -17.219 200.591 118.066  0.00  0.00    +0.028 A 
ATOM     14  C   UNL A   1     -15.846 200.381 117.947  0.00  0.00    +0.003 A 
ATOM     15  C   UNL A   1     -15.004 201.434 117.574  0.00  0.00    +0.010 A 
ATOM     16  C   UNL A   1     -15.525 202.708 117.288  0.00  0.00    +0.005 A 
ATOM     17  C   UNL A   1     -16.899 202.935 117.456  0.00  0.00    +0.038 A 
BRANCH  12  18
ATOM     18  N   UNL A   1     -19.163 202.135 118.101  0.00  0.00    -0.187 N 
ATOM     19  O   UNL A   1     -19.887 202.375 117.118  0.00  0.00    -0.173 OA
ATOM     20  O   UNL A   1     -19.553 202.107 119.271  0.00  0.00    -0.777 OA
ENDBRANCH  12  18
ENDBRANCH   1  16
BRANCH   3  21
ATOM     21  C   UNL A   1     -11.646 205.540 118.250  0.00  0.00    +0.242 C 
BRANCH  21  22
ATOM     22  C   UNL A   1     -10.963 205.771 116.892  0.00  0.00    +0.235 C 
ATOM     23  O   UNL A   1     -10.022 206.554 116.755  0.00  0.00    -0.274 OA
ATOM     24  N   UNL A   1     -11.374 204.935 115.874  0.00  0.00    -0.311 N 
ATOM     25  H   UNL A   1     -12.301 204.530 115.967  0.00  0.00    +0.149 HD
BRANCH  24  26
ATOM     26  C   UNL A   1     -10.755 204.978 114.559  0.00  0.00    +0.135 C 
BRANCH  26  27
ATOM     27  C   UNL A   1     -11.474 205.945 113.611  0.00  0.00    +0.135 C 
ATOM     28  O   UNL A   1     -10.565 206.989 113.195  0.00  0.00    -0.375 OA
ATOM     29  C   UNL A   1     -10.632 207.109 111.768  0.00  0.00    +0.160 C 
ATOM     30  C   UNL A   1     -11.880 206.383 111.322  0.00  0.00    +0.030 C 
ATOM     31  C   UNL A   1     -11.982 205.275 112.341  0.00  0.00    +0.035 C 
ENDBRANCH  26  27
ENDBRANCH  24  26
ENDBRANCH  21  22
ENDBRANCH   3  21
TORSDOF 6
ENDMDL
MODEL 3
REMARK minimizedAffinity -9.18149662
REMARK minimizedRMSD -1
REMARK  Name = CS102
REMARK  6 active torsions:
REMARK  status: ('A' for Active; 'I' for Inactive)
REMARK    1  A    between atoms: N_1  and  C_3
REMARK    2  A    between atoms: C_7  and  C_9
REMARK    3  A    between atoms: N_11  and  C_20
REMARK    4  A    between atoms: C_20  and  C_21
REMARK    5  A    between atoms: N_23  and  C_24
REMARK    6  A    between atoms: C_24  and  C_25
REMARK                            x       y       z     vdW  Elec       q    Type
REMARK                         _______ _______ _______ _____ _____    ______ ____
ROOT
ATOM      1  C   UNL A   1     -12.399 205.920 113.794  0.00  0.00    +0.099 A 
ATOM      2  N   UNL A   1     -12.585 205.099 114.805  0.00  0.00    -0.167 NA
ATOM      3  N   UNL A   1     -11.992 205.532 115.990  0.00  0.00    -0.220 N 
ATOM      4  C   UNL A   1     -11.664 206.876 116.111  0.00  0.00    +0.276 A 
ATOM      5  O   UNL A   1     -11.937 207.633 117.020  0.00  0.00    -0.266 OA
ATOM      6  C   UNL A   1     -10.780 207.228 115.014  0.00  0.00    +0.050 A 
ATOM      7  C   UNL A   1     -11.155 206.737 113.774  0.00  0.00    +0.015 A 
ATOM      8  C   UNL A   1     -10.226 206.741 112.723  0.00  0.00    +0.011 A 
ATOM      9  C   UNL A   1      -8.920 207.195 112.995  0.00  0.00    +0.001 A 
ATOM     10  C   UNL A   1      -8.546 207.615 114.280  0.00  0.00    +0.001 A 
ATOM     11  C   UNL A   1      -9.489 207.651 115.300  0.00  0.00    +0.014 A 
ENDROOT
BRANCH   1  16
ATOM     12  C   UNL A   1     -15.858 206.229 112.234  0.00  0.00    +0.076 A 
ATOM     13  C   UNL A   1     -15.553 206.140 110.870  0.00  0.00    +0.028 A 
ATOM     14  C   UNL A   1     -14.223 205.993 110.477  0.00  0.00    +0.003 A 
ATOM     15  C   UNL A   1     -13.206 205.974 111.436  0.00  0.00    +0.010 A 
ATOM     16  C   UNL A   1     -13.498 206.129 112.802  0.00  0.00    +0.005 A 
ATOM     17  C   UNL A   1     -14.838 206.225 113.205  0.00  0.00    +0.038 A 
BRANCH  12  18
ATOM     18  N   UNL A   1     -17.265 206.246 112.665  0.00  0.00    -0.187 N 
ATOM     19  O   UNL A   1     -17.579 205.522 113.627  0.00  0.00    -0.173 OA
ATOM     20  O   UNL A   1     -18.049 206.968 112.045  0.00  0.00    -0.777 OA
ENDBRANCH  12  18
ENDBRANCH   1  16
BRANCH   3  21
ATOM     21  C   UNL A   1     -11.482 204.643 117.013  0.00  0.00    +0.242 C 
BRANCH  21  22
ATOM     22  C   UNL A   1     -12.550 204.245 118.044  0.00  0.00    +0.235 C 
ATOM     23  O   UNL A   1     -12.531 204.663 119.204  0.00  0.00    -0.274 OA
ATOM     24  N   UNL A   1     -13.610 203.513 117.548  0.00  0.00    -0.311 N 
ATOM     25  H   UNL A   1     -13.435 202.985 116.698  0.00  0.00    +0.149 HD
BRANCH  24  26
ATOM     26  C   UNL A   1     -14.737 203.143 118.387  0.00  0.00    +0.135 C 
BRANCH  26  27
ATOM     27  C   UNL A   1     -15.782 202.319 117.624  0.00  0.00    +0.135 C 
ATOM     28  O   UNL A   1     -15.561 200.911 117.860  0.00  0.00    -0.375 OA
ATOM     29  C   UNL A   1     -16.810 200.310 118.230  0.00  0.00    +0.160 C 
ATOM     30  C   UNL A   1     -17.898 201.289 117.854  0.00  0.00    +0.030 C 
ATOM     31  C   UNL A   1     -17.212 202.617 118.055  0.00  0.00    +0.035 C 
ENDBRANCH  26  27
ENDBRANCH  24  26
ENDBRANCH  21  22
ENDBRANCH   3  21
TORSDOF 6
ENDMDL
MODEL 4
REMARK minimizedAffinity -8.42257881
REMARK minimizedRMSD -1
REMARK  Name = CS102
REMARK  6 active torsions:
REMARK  status: ('A' for Active; 'I' for Inactive)
REMARK    1  A    between atoms: N_1  and  C_3
REMARK    2  A    between atoms: C_7  and  C_9
REMARK    3  A    between atoms: N_11  and  C_20
REMARK    4  A    between atoms: C_20  and  C_21
REMARK    5  A    between atoms: N_23  and  C_24
REMARK    6  A    between atoms: C_24  and  C_25
REMARK                            x       y       z     vdW  Elec       q    Type
REMARK                         _______ _______ _______ _____ _____    ______ ____
ROOT
ATOM      1  C   UNL A   1     -13.306 205.927 114.503  0.00  0.00    +0.099 A 
ATOM      2  N   UNL A   1     -13.584 204.923 115.306  0.00  0.00    -0.167 NA
ATOM      3  N   UNL A   1     -13.419 205.228 116.656  0.00  0.00    -0.220 N 
ATOM      4  C   UNL A   1     -13.405 206.565 117.034  0.00  0.00    +0.276 A 
ATOM      5  O   UNL A   1     -14.050 207.099 117.913  0.00  0.00    -0.266 OA
ATOM      6  C   UNL A   1     -12.353 207.236 116.292  0.00  0.00    +0.050 A 
ATOM      7  C   UNL A   1     -12.287 206.918 114.945  0.00  0.00    +0.015 A 
ATOM      8  C   UNL A   1     -11.135 207.249 114.215  0.00  0.00    +0.011 A 
ATOM      9  C   UNL A   1     -10.062 207.844 114.907  0.00  0.00    +0.001 A 
ATOM     10  C   UNL A   1     -10.126 208.085 116.288  0.00  0.00    +0.001 A 
ATOM     11  C   UNL A   1     -11.290 207.795 116.989  0.00  0.00    +0.014 A 
ENDROOT
BRANCH   1  16
ATOM     12  C   UNL A   1     -16.277 206.278 112.148  0.00  0.00    +0.076 A 
ATOM     13  C   UNL A   1     -15.655 206.140 110.900  0.00  0.00    +0.028 A 
ATOM     14  C   UNL A   1     -14.275 205.948 110.843  0.00  0.00    +0.003 A 
ATOM     15  C   UNL A   1     -13.520 205.931 112.019  0.00  0.00    +0.010 A 
ATOM     16  C   UNL A   1     -14.127 206.135 113.271  0.00  0.00    +0.005 A 
ATOM     17  C   UNL A   1     -15.521 206.278 113.335  0.00  0.00    +0.038 A 
BRANCH  12  18
ATOM     18  N   UNL A   1     -17.744 206.345 112.225  0.00  0.00    -0.187 N 
ATOM     19  O   UNL A   1     -18.323 207.143 111.467  0.00  0.00    -0.173 OA
ATOM     20  O   UNL A   1     -18.312 205.612 113.039  0.00  0.00    -0.777 OA
ENDBRANCH  12  18
ENDBRANCH   1  16
BRANCH   3  21
ATOM     21  C   UNL A   1     -13.029 204.263 117.663  0.00  0.00    +0.242 C 
BRANCH  21  22
ATOM     22  C   UNL A   1     -11.509 204.221 117.891  0.00  0.00    +0.235 C 
ATOM     23  O   UNL A   1     -10.704 204.249 116.958  0.00  0.00    -0.274 OA
ATOM     24  N   UNL A   1     -11.105 204.302 119.208  0.00  0.00    -0.311 N 
ATOM     25  H   UNL A   1     -11.780 204.003 119.906  0.00  0.00    +0.149 HD
BRANCH  24  26
ATOM     26  C   UNL A   1      -9.699 204.362 119.569  0.00  0.00    +0.135 C 
BRANCH  26  27
ATOM     27  C   UNL A   1      -9.186 205.805 119.661  0.00  0.00    +0.135 C 
ATOM     28  O   UNL A   1      -8.595 206.031 120.960  0.00  0.00    -0.375 OA
ATOM     29  C   UNL A   1      -7.308 206.637 120.775  0.00  0.00    +0.160 C 
ATOM     30  C   UNL A   1      -7.257 207.138 119.351  0.00  0.00    +0.030 C 
ATOM     31  C   UNL A   1      -8.112 206.126 118.629  0.00  0.00    +0.035 C 
ENDBRANCH  26  27
ENDBRANCH  24  26
ENDBRANCH  21  22
ENDBRANCH   3  21
TORSDOF 6
ENDMDL
MODEL 5
REMARK minimizedAffinity -8.28634071
REMARK minimizedRMSD -1
REMARK  Name = CS102
REMARK  6 active torsions:
REMARK  status: ('A' for Active; 'I' for Inactive)
REMARK    1  A    between atoms: N_1  and  C_3
REMARK    2  A    between atoms: C_7  and  C_9
REMARK    3  A    between atoms: N_11  and  C_20
REMARK    4  A    between atoms: C_20  and  C_21
REMARK    5  A    between atoms: N_23  and  C_24
REMARK    6  A    between atoms: C_24  and  C_25
REMARK                            x       y       z     vdW  Elec       q    Type
REMARK                         _______ _______ _______ _____ _____    ______ ____
ROOT
ATOM      1  C   UNL A   1     -11.580 206.311 114.270  0.00  0.00    +0.099 A 
ATOM      2  N   UNL A   1     -12.722 206.963 114.232  0.00  0.00    -0.167 NA
ATOM      3  N   UNL A   1     -13.131 207.445 115.474  0.00  0.00    -0.220 N 
ATOM      4  C   UNL A   1     -12.180 207.573 116.478  0.00  0.00    +0.276 A 
ATOM      5  O   UNL A   1     -11.957 208.541 117.177  0.00  0.00    -0.266 OA
ATOM      6  C   UNL A   1     -11.558 206.277 116.683  0.00  0.00    +0.050 A 
ATOM      7  C   UNL A   1     -11.225 205.593 115.525  0.00  0.00    +0.015 A 
ATOM      8  C   UNL A   1     -10.924 204.225 115.596  0.00  0.00    +0.011 A 
ATOM      9  C   UNL A   1     -11.033 203.587 116.848  0.00  0.00    +0.001 A 
ATOM     10  C   UNL A   1     -11.447 204.287 117.991  0.00  0.00    +0.001 A 
ATOM     11  C   UNL A   1     -11.696 205.652 117.915  0.00  0.00    +0.014 A 
ENDROOT
BRANCH   1  16
ATOM     12  C   UNL A   1      -8.438 207.091 112.266  0.00  0.00    +0.076 A 
ATOM     13  C   UNL A   1      -8.936 207.067 110.957  0.00  0.00    +0.028 A 
ATOM     14  C   UNL A   1     -10.285 206.785 110.744  0.00  0.00    +0.003 A 
ATOM     15  C   UNL A   1     -11.120 206.492 111.827  0.00  0.00    +0.010 A 
ATOM     16  C   UNL A   1     -10.614 206.449 113.138  0.00  0.00    +0.005 A 
ATOM     17  C   UNL A   1      -9.270 206.782 113.360  0.00  0.00    +0.038 A 
BRANCH  12  18
ATOM     18  N   UNL A   1      -7.053 207.520 112.510  0.00  0.00    -0.187 N 
ATOM     19  O   UNL A   1      -6.842 208.243 113.501  0.00  0.00    -0.173 OA
ATOM     20  O   UNL A   1      -6.185 207.146 111.717  0.00  0.00    -0.777 OA
ENDBRANCH  12  18
ENDBRANCH   1  16
BRANCH   3  21
ATOM     21  C   UNL A   1     -14.516 207.602 115.866  0.00  0.00    +0.242 C 
BRANCH  21  22
ATOM     22  C   UNL A   1     -15.422 206.488 115.315  0.00  0.00    +0.235 C 
ATOM     23  O   UNL A   1     -15.804 205.547 116.014  0.00  0.00    -0.274 OA
ATOM     24  N   UNL A   1     -15.899 206.691 114.037  0.00  0.00    -0.311 N 
ATOM     25  H   UNL A   1     -15.350 207.305 113.442  0.00  0.00    +0.149 HD
BRANCH  24  26
ATOM     26  C   UNL A   1     -16.835 205.767 113.419  0.00  0.00    +0.135 C 
BRANCH  26  27
ATOM     27  C   UNL A   1     -16.194 204.967 112.279  0.00  0.00    +0.135 C 
ATOM     28  O   UNL A   1     -15.763 205.867 111.233  0.00  0.00    -0.375 OA
ATOM     29  C   UNL A   1     -14.408 205.549 110.888  0.00  0.00    +0.160 C 
ATOM     30  C   UNL A   1     -14.114 204.185 111.469  0.00  0.00    +0.030 C 
ATOM     31  C   UNL A   1     -14.963 204.182 112.715  0.00  0.00    +0.035 C 
ENDBRANCH  26  27
ENDBRANCH  24  26
ENDBRANCH  21  22
ENDBRANCH   3  21
TORSDOF 6
ENDMDL
MODEL 6
REMARK minimizedAffinity -8.19691753
REMARK minimizedRMSD -1
REMARK  Name = CS102
REMARK  6 active torsions:
REMARK  status: ('A' for Active; 'I' for Inactive)
REMARK    1  A    between atoms: N_1  and  C_3
REMARK    2  A    between atoms: C_7  and  C_9
REMARK    3  A    between atoms: N_11  and  C_20
REMARK    4  A    between atoms: C_20  and  C_21
REMARK    5  A    between atoms: N_23  and  C_24
REMARK    6  A    between atoms: C_24  and  C_25
REMARK                            x       y       z     vdW  Elec       q    Type
REMARK                         _______ _______ _______ _____ _____    ______ ____
ROOT
ATOM      1  C   UNL A   1     -13.373 206.040 114.387  0.00  0.00    +0.099 A 
ATOM      2  N   UNL A   1     -13.744 205.127 115.258  0.00  0.00    -0.167 NA
ATOM      3  N   UNL A   1     -13.549 205.510 116.584  0.00  0.00    -0.220 N 
ATOM      4  C   UNL A   1     -13.408 206.863 116.867  0.00  0.00    +0.276 A 
ATOM      5  O   UNL A   1     -13.998 207.517 117.702  0.00  0.00    -0.266 OA
ATOM      6  C   UNL A   1     -12.298 207.377 116.085  0.00  0.00    +0.050 A 
ATOM      7  C   UNL A   1     -12.264 206.959 114.763  0.00  0.00    +0.015 A 
ATOM      8  C   UNL A   1     -11.087 207.127 114.019  0.00  0.00    +0.011 A 
ATOM      9  C   UNL A   1      -9.961 207.666 114.672  0.00  0.00    +0.001 A 
ATOM     10  C   UNL A   1     -10.000 208.009 116.032  0.00  0.00    +0.001 A 
ATOM     11  C   UNL A   1     -11.186 207.882 116.745  0.00  0.00    +0.014 A 
ENDROOT
BRANCH   1  16
ATOM     12  C   UNL A   1     -16.303 206.400 111.983  0.00  0.00    +0.076 A 
ATOM     13  C   UNL A   1     -15.668 206.220 110.748  0.00  0.00    +0.028 A 
ATOM     14  C   UNL A   1     -14.292 205.997 110.714  0.00  0.00    +0.003 A 
ATOM     15  C   UNL A   1     -13.553 205.992 111.901  0.00  0.00    +0.010 A 
ATOM     16  C   UNL A   1     -14.172 206.237 113.139  0.00  0.00    +0.005 A 
ATOM     17  C   UNL A   1     -15.563 206.411 113.181  0.00  0.00    +0.038 A 
BRANCH  12  18
ATOM     18  N   UNL A   1     -17.770 206.499 112.038  0.00  0.00    -0.187 N 
ATOM     19  O   UNL A   1     -18.353 205.874 112.942  0.00  0.00    -0.173 OA
ATOM     20  O   UNL A   1     -18.334 207.188 111.185  0.00  0.00    -0.777 OA
ENDBRANCH  12  18
ENDBRANCH   1  16
BRANCH   3  21
ATOM     21  C   UNL A   1     -13.250 204.586 117.658  0.00  0.00    +0.242 C 
BRANCH  21  22
ATOM     22  C   UNL A   1     -14.508 203.916 118.236  0.00  0.00    +0.235 C 
ATOM     23  O   UNL A   1     -15.517 203.718 117.556  0.00  0.00    -0.274 OA
ATOM     24  N   UNL A   1     -14.378 203.418 119.516  0.00  0.00    -0.311 N 
ATOM     25  H   UNL A   1     -13.659 203.842 120.096  0.00  0.00    +0.149 HD
BRANCH  24  26
ATOM     26  C   UNL A   1     -15.455 202.682 120.158  0.00  0.00    +0.135 C 
BRANCH  26  27
ATOM     27  C   UNL A   1     -15.652 203.100 121.620  0.00  0.00    +0.135 C 
ATOM     28  O   UNL A   1     -15.931 201.935 122.428  0.00  0.00    -0.375 OA
ATOM     29  C   UNL A   1     -15.071 201.958 123.575  0.00  0.00    +0.160 C 
ATOM     30  C   UNL A   1     -14.506 203.356 123.673  0.00  0.00    +0.030 C 
ATOM     31  C   UNL A   1     -14.423 203.767 122.224  0.00  0.00    +0.035 C 
ENDBRANCH  26  27
ENDBRANCH  24  26
ENDBRANCH  21  22
ENDBRANCH   3  21
TORSDOF 6
ENDMDL
MODEL 7
REMARK minimizedAffinity -8.14272404
REMARK minimizedRMSD -1
REMARK  Name = CS102
REMARK  6 active torsions:
REMARK  status: ('A' for Active; 'I' for Inactive)
REMARK    1  A    between atoms: N_1  and  C_3
REMARK    2  A    between atoms: C_7  and  C_9
REMARK    3  A    between atoms: N_11  and  C_20
REMARK    4  A    between atoms: C_20  and  C_21
REMARK    5  A    between atoms: N_23  and  C_24
REMARK    6  A    between atoms: C_24  and  C_25
REMARK                            x       y       z     vdW  Elec       q    Type
REMARK                         _______ _______ _______ _____ _____    ______ ____
ROOT
ATOM      1  C   UNL A   1     -11.871 206.271 113.605  0.00  0.00    +0.099 A 
ATOM      2  N   UNL A   1     -11.903 205.618 114.746  0.00  0.00    -0.167 NA
ATOM      3  N   UNL A   1     -11.189 206.243 115.767  0.00  0.00    -0.220 N 
ATOM      4  C   UNL A   1     -10.899 207.595 115.637  0.00  0.00    +0.276 A 
ATOM      5  O   UNL A   1     -11.090 208.481 116.445  0.00  0.00    -0.266 OA
ATOM      6  C   UNL A   1     -10.167 207.786 114.398  0.00  0.00    +0.050 A 
ATOM      7  C   UNL A   1     -10.670 207.098 113.305  0.00  0.00    +0.015 A 
ATOM      8  C   UNL A   1      -9.875 206.952 112.158  0.00  0.00    +0.011 A 
ATOM      9  C   UNL A   1      -8.563 207.467 112.193  0.00  0.00    +0.001 A 
ATOM     10  C   UNL A   1      -8.053 208.091 113.341  0.00  0.00    +0.001 A 
ATOM     11  C   UNL A   1      -8.867 208.271 114.452  0.00  0.00    +0.014 A 
ENDROOT
BRANCH   1  16
ATOM     12  C   UNL A   1     -15.499 206.198 112.453  0.00  0.00    +0.076 A 
ATOM     13  C   UNL A   1     -15.345 205.971 111.079  0.00  0.00    +0.028 A 
ATOM     14  C   UNL A   1     -14.062 205.859 110.545  0.00  0.00    +0.003 A 
ATOM     15  C   UNL A   1     -12.943 206.009 111.370  0.00  0.00    +0.010 A 
ATOM     16  C   UNL A   1     -13.088 206.302 112.738  0.00  0.00    +0.005 A 
ATOM     17  C   UNL A   1     -14.377 206.365 113.287  0.00  0.00    +0.038 A 
BRANCH  12  18
ATOM     18  N   UNL A   1     -16.844 206.182 113.046  0.00  0.00    -0.187 N 
ATOM     19  O   UNL A   1     -16.977 205.626 114.152  0.00  0.00    -0.173 OA
ATOM     20  O   UNL A   1     -17.760 206.712 112.413  0.00  0.00    -0.777 OA
ENDBRANCH  12  18
ENDBRANCH   1  16
BRANCH   3  21
ATOM     21  C   UNL A   1     -10.527 205.536 116.844  0.00  0.00    +0.242 C 
BRANCH  21  22
ATOM     22  C   UNL A   1     -11.501 204.720 117.709  0.00  0.00    +0.235 C 
ATOM     23  O   UNL A   1     -11.753 203.535 117.476  0.00  0.00    -0.274 OA
ATOM     24  N   UNL A   1     -11.957 205.354 118.847  0.00  0.00    -0.311 N 
ATOM     25  H   UNL A   1     -11.943 206.370 118.834  0.00  0.00    +0.149 HD
BRANCH  24  26
ATOM     26  C   UNL A   1     -12.812 204.674 119.805  0.00  0.00    +0.135 C 
BRANCH  26  27
ATOM     27  C   UNL A   1     -14.162 205.380 119.980  0.00  0.00    +0.135 C 
ATOM     28  O   UNL A   1     -15.084 204.509 120.672  0.00  0.00    -0.375 OA
ATOM     29  C   UNL A   1     -15.684 205.243 121.748  0.00  0.00    +0.160 C 
ATOM     30  C   UNL A   1     -15.409 206.706 121.491  0.00  0.00    +0.030 C 
ATOM     31  C   UNL A   1     -14.067 206.659 120.802  0.00  0.00    +0.035 C 
ENDBRANCH  26  27
ENDBRANCH  24  26
ENDBRANCH  21  22
ENDBRANCH   3  21
TORSDOF 6
ENDMDL
MODEL 8
REMARK minimizedAffinity -7.96744633
REMARK minimizedRMSD -1
REMARK  Name = CS102
REMARK  6 active torsions:
REMARK  status: ('A' for Active; 'I' for Inactive)
REMARK    1  A    between atoms: N_1  and  C_3
REMARK    2  A    between atoms: C_7  and  C_9
REMARK    3  A    between atoms: N_11  and  C_20
REMARK    4  A    between atoms: C_20  and  C_21
REMARK    5  A    between atoms: N_23  and  C_24
REMARK    6  A    between atoms: C_24  and  C_25
REMARK                            x       y       z     vdW  Elec       q    Type
REMARK                         _______ _______ _______ _____ _____    ______ ____
ROOT
ATOM      1  C   UNL A   1     -12.011 206.178 113.614  0.00  0.00    +0.099 A 
ATOM      2  N   UNL A   1     -12.054 205.406 114.679  0.00  0.00    -0.167 NA
ATOM      3  N   UNL A   1     -11.389 205.940 115.781  0.00  0.00    -0.220 N 
ATOM      4  C   UNL A   1     -11.140 207.306 115.804  0.00  0.00    +0.276 A 
ATOM      5  O   UNL A   1     -11.382 208.096 116.694  0.00  0.00    -0.266 OA
ATOM      6  C   UNL A   1     -10.381 207.649 114.614  0.00  0.00    +0.050 A 
ATOM      7  C   UNL A   1     -10.830 207.067 113.440  0.00  0.00    +0.015 A 
ATOM      8  C   UNL A   1     -10.000 207.067 112.309  0.00  0.00    +0.011 A 
ATOM      9  C   UNL A   1      -8.707 207.614 112.438  0.00  0.00    +0.001 A 
ATOM     10  C   UNL A   1      -8.250 208.128 113.660  0.00  0.00    +0.001 A 
ATOM     11  C   UNL A   1      -9.100 208.164 114.759  0.00  0.00    +0.014 A 
ENDROOT
BRANCH   1  16
ATOM     12  C   UNL A   1     -15.609 206.219 112.368  0.00  0.00    +0.076 A 
ATOM     13  C   UNL A   1     -15.423 206.039 110.991  0.00  0.00    +0.028 A 
ATOM     14  C   UNL A   1     -14.129 205.920 110.486  0.00  0.00    +0.003 A 
ATOM     15  C   UNL A   1     -13.030 206.018 111.345  0.00  0.00    +0.010 A 
ATOM     16  C   UNL A   1     -13.204 206.264 112.718  0.00  0.00    +0.005 A 
ATOM     17  C   UNL A   1     -14.506 206.333 113.236  0.00  0.00    +0.038 A 
BRANCH  12  18
ATOM     18  N   UNL A   1     -16.970 206.209 112.926  0.00  0.00    -0.187 N 
ATOM     19  O   UNL A   1     -17.142 205.616 114.006  0.00  0.00    -0.173 OA
ATOM     20  O   UNL A   1     -17.858 206.780 112.290  0.00  0.00    -0.777 OA
ENDBRANCH  12  18
ENDBRANCH   1  16
BRANCH   3  21
ATOM     21  C   UNL A   1     -10.734 205.142 116.797  0.00  0.00    +0.242 C 
BRANCH  21  22
ATOM     22  C   UNL A   1     -11.697 204.674 117.900  0.00  0.00    +0.235 C 
ATOM     23  O   UNL A   1     -12.540 203.796 117.706  0.00  0.00    -0.274 OA
ATOM     24  N   UNL A   1     -11.455 205.191 119.156  0.00  0.00    -0.311 N 
ATOM     25  H   UNL A   1     -10.958 206.076 119.193  0.00  0.00    +0.149 HD
BRANCH  24  26
ATOM     26  C   UNL A   1     -12.228 204.770 120.313  0.00  0.00    +0.135 C 
BRANCH  26  27
ATOM     27  C   UNL A   1     -11.338 204.459 121.523  0.00  0.00    +0.135 C 
ATOM     28  O   UNL A   1     -12.054 203.616 122.453  0.00  0.00    -0.375 OA
ATOM     29  C   UNL A   1     -11.213 202.509 122.804  0.00  0.00    +0.160 C 
ATOM     30  C   UNL A   1      -9.810 202.868 122.374  0.00  0.00    +0.030 C 
ATOM     31  C   UNL A   1     -10.060 203.717 121.153  0.00  0.00    +0.035 C 
ENDBRANCH  26  27
ENDBRANCH  24  26
ENDBRANCH  21  22
ENDBRANCH   3  21
TORSDOF 6
ENDMDL
MODEL 9
REMARK minimizedAffinity -7.62402105
REMARK minimizedRMSD -1
REMARK  Name = CS102
REMARK  6 active torsions:
REMARK  status: ('A' for Active; 'I' for Inactive)
REMARK    1  A    between atoms: N_1  and  C_3
REMARK    2  A    between atoms: C_7  and  C_9
REMARK    3  A    between atoms: N_11  and  C_20
REMARK    4  A    between atoms: C_20  and  C_21
REMARK    5  A    between atoms: N_23  and  C_24
REMARK    6  A    between atoms: C_24  and  C_25
REMARK                            x       y       z     vdW  Elec       q    Type
REMARK                         _______ _______ _______ _____ _____    ______ ____
ROOT
ATOM      1  C   UNL A   1     -11.302 206.887 116.178  0.00  0.00    +0.099 A 
ATOM      2  N   UNL A   1     -12.255 207.669 115.719  0.00  0.00    -0.167 NA
ATOM      3  N   UNL A   1     -13.436 207.600 116.456  0.00  0.00    -0.220 N 
ATOM      4  C   UNL A   1     -13.378 207.098 117.749  0.00  0.00    +0.276 A 
ATOM      5  O   UNL A   1     -13.827 207.592 118.763  0.00  0.00    -0.266 OA
ATOM      6  C   UNL A   1     -12.807 205.764 117.694  0.00  0.00    +0.050 A 
ATOM      7  C   UNL A   1     -11.699 205.631 116.871  0.00  0.00    +0.015 A 
ATOM      8  C   UNL A   1     -11.271 204.349 116.496  0.00  0.00    +0.011 A 
ATOM      9  C   UNL A   1     -12.030 203.244 116.929  0.00  0.00    +0.001 A 
ATOM     10  C   UNL A   1     -13.192 203.412 117.698  0.00  0.00    +0.001 A 
ATOM     11  C   UNL A   1     -13.578 204.684 118.102  0.00  0.00    +0.014 A 
ENDROOT
BRANCH   1  16
ATOM     12  C   UNL A   1      -7.852 207.894 114.921  0.00  0.00    +0.076 A 
ATOM     13  C   UNL A   1      -7.108 207.860 116.108  0.00  0.00    +0.028 A 
ATOM     14  C   UNL A   1      -7.743 207.522 117.302  0.00  0.00    +0.003 A 
ATOM     15  C   UNL A   1      -9.116 207.259 117.317  0.00  0.00    +0.010 A 
ATOM     16  C   UNL A   1      -9.883 207.355 116.142  0.00  0.00    +0.005 A 
ATOM     17  C   UNL A   1      -9.238 207.643 114.931  0.00  0.00    +0.038 A 
BRANCH  12  18
ATOM     18  N   UNL A   1      -7.166 208.114 113.639  0.00  0.00    -0.187 N 
ATOM     19  O   UNL A   1      -7.875 208.256 112.626  0.00  0.00    -0.173 OA
ATOM     20  O   UNL A   1      -5.933 208.138 113.641  0.00  0.00    -0.777 OA
ENDBRANCH  12  18
ENDBRANCH   1  16
BRANCH   3  21
ATOM     21  C   UNL A   1     -14.755 207.796 115.891  0.00  0.00    +0.242 C 
BRANCH  21  22
ATOM     22  C   UNL A   1     -15.174 206.659 114.945  0.00  0.00    +0.235 C 
ATOM     23  O   UNL A   1     -16.194 206.721 114.255  0.00  0.00    -0.274 OA
ATOM     24  N   UNL A   1     -14.258 205.636 114.807  0.00  0.00    -0.311 N 
ATOM     25  H   UNL A   1     -13.606 205.507 115.575  0.00  0.00    +0.149 HD
BRANCH  24  26
ATOM     26  C   UNL A   1     -14.479 204.539 113.879  0.00  0.00    +0.135 C 
BRANCH  26  27
ATOM     27  C   UNL A   1     -13.469 204.544 112.725  0.00  0.00    +0.135 C 
ATOM     28  O   UNL A   1     -14.034 205.228 111.584  0.00  0.00    -0.375 OA
ATOM     29  C   UNL A   1     -13.080 206.186 111.109  0.00  0.00    +0.160 C 
ATOM     30  C   UNL A   1     -11.751 205.833 111.735  0.00  0.00    +0.030 C 
ATOM     31  C   UNL A   1     -12.170 205.263 113.067  0.00  0.00    +0.035 C 
ENDBRANCH  26  27
ENDBRANCH  24  26
ENDBRANCH  21  22
ENDBRANCH   3  21
TORSDOF 6
ENDMDL
