MODEL 1
REMARK minimizedAffinity -8.73096752
REMARK minimizedRMSD -1
REMARK  Name = CS160
REMARK  7 active torsions:
REMARK  status: ('A' for Active; 'I' for Inactive)
REMARK    1  A    between atoms: C_7  and  C_9
REMARK    2  A    between atoms: C_14  and  N_15
REMARK    3  A    between atoms: C_16  and  C_18
REMARK    4  A    between atoms: C_18  and  N_19
REMARK    5  A    between atoms: N_19  and  C_20
REMARK    6  A    between atoms: N_19  and  S_27
REMARK    7  A    between atoms: S_27  and  C_30
REMARK                            x       y       z     vdW  Elec       q    Type
REMARK                         _______ _______ _______ _____ _____    ______ ____
ROOT
ATOM      1  N   UNL A   1     -15.676 203.584 117.735  0.00  0.00    -0.283 N 
ATOM      2  C   UNL A   1     -15.381 204.236 116.531  0.00  0.00    +0.236 C 
ATOM      3  O   UNL A   1     -15.470 203.709 115.420  0.00  0.00    -0.274 OA
ATOM      4  H   UNL A   1     -16.091 204.149 118.471  0.00  0.00    +0.155 HD
ENDROOT
BRANCH   1  10
ATOM      5  C   UNL A   1     -17.196 201.625 118.159  0.00  0.00    +0.058 A 
ATOM      6  C   UNL A   1     -17.350 200.228 118.060  0.00  0.00    +0.015 A 
ATOM      7  C   UNL A   1     -16.281 199.373 117.827  0.00  0.00    +0.001 A 
ATOM      8  C   UNL A   1     -15.040 199.912 117.546  0.00  0.00    +0.002 A 
ATOM      9  C   UNL A   1     -14.889 201.299 117.481  0.00  0.00    +0.024 A 
ATOM     10  C   UNL A   1     -15.948 202.180 117.783  0.00  0.00    +0.046 A 
BRANCH   5  17
ATOM     11  N   UNL A   1     -18.667 202.890 119.775  0.00  0.00    -0.293 N 
ATOM     12  C   UNL A   1     -17.693 203.095 120.861  0.00  0.00    +0.136 C 
ATOM     13  C   UNL A   1     -18.134 202.323 122.115  0.00  0.00    +0.178 C 
ATOM     14  O   UNL A   1     -19.443 202.747 122.527  0.00  0.00    -0.377 OA
ATOM     15  C   UNL A   1     -20.410 202.527 121.481  0.00  0.00    +0.178 C 
ATOM     16  C   UNL A   1     -20.026 203.269 120.184  0.00  0.00    +0.136 C 
ATOM     17  C   UNL A   1     -18.426 202.431 118.468  0.00  0.00    +0.248 C 
ATOM     18  O   UNL A   1     -19.228 202.615 117.556  0.00  0.00    -0.270 OA
ENDBRANCH   5  17
ENDBRANCH   1  10
BRANCH   2  19
ATOM     19  C   UNL A   1     -14.891 205.686 116.651  0.00  0.00    +0.227 C 
BRANCH  19  20
ATOM     20  N   UNL A   1     -13.388 205.796 116.642  0.00  0.00    -0.199 N 
BRANCH  20  21
ATOM     21  C   UNL A   1     -12.795 205.867 115.335  0.00  0.00    +0.051 A 
ATOM     22  C   UNL A   1     -13.411 206.655 114.361  0.00  0.00    +0.026 A 
ATOM     23  C   UNL A   1     -12.812 206.807 113.108  0.00  0.00    +0.022 A 
ATOM     24  C   UNL A   1     -11.608 206.158 112.834  0.00  0.00    +0.041 A 
ATOM     25  C   UNL A   1     -11.034 205.306 113.773  0.00  0.00    +0.022 A 
ATOM     26  C   UNL A   1     -11.644 205.138 115.016  0.00  0.00    +0.026 A 
ATOM     27 CL   UNL A   1     -10.820 206.410 111.325  0.00  0.00    -0.084 Cl
ENDBRANCH  20  21
BRANCH  20  28
ATOM     28  S   UNL A   1     -12.737 206.905 117.765  0.00  0.00    +0.043 S 
ATOM     29  O   UNL A   1     -11.772 207.752 117.087  0.00  0.00    -0.155 OA
ATOM     30  O   UNL A   1     -13.827 207.480 118.513  0.00  0.00    -0.155 OA
ATOM     31  C   UNL A   1     -11.796 205.848 118.857  0.00  0.00    +0.218 C 
ENDBRANCH  20  28
ENDBRANCH  19  20
ENDBRANCH   2  19
TORSDOF 6
ENDMDL
MODEL 2
REMARK minimizedAffinity -8.6574707
REMARK minimizedRMSD -1
REMARK  Name = CS160
REMARK  7 active torsions:
REMARK  status: ('A' for Active; 'I' for Inactive)
REMARK    1  A    between atoms: C_7  and  C_9
REMARK    2  A    between atoms: C_14  and  N_15
REMARK    3  A    between atoms: C_16  and  C_18
REMARK    4  A    between atoms: C_18  and  N_19
REMARK    5  A    between atoms: N_19  and  C_20
REMARK    6  A    between atoms: N_19  and  S_27
REMARK    7  A    between atoms: S_27  and  C_30
REMARK                            x       y       z     vdW  Elec       q    Type
REMARK                         _______ _______ _______ _____ _____    ______ ____
ROOT
ATOM      1  N   UNL A   1     -12.000 206.539 112.611  0.00  0.00    -0.283 N 
ATOM      2  C   UNL A   1     -10.748 206.277 113.182  0.00  0.00    +0.236 C 
ATOM      3  O   UNL A   1     -10.451 205.219 113.740  0.00  0.00    -0.274 OA
ATOM      4  H   UNL A   1     -12.009 207.114 111.773  0.00  0.00    +0.155 HD
ENDROOT
BRANCH   1  10
ATOM      5  C   UNL A   1     -13.955 205.644 113.916  0.00  0.00    +0.058 A 
ATOM      6  C   UNL A   1     -15.069 204.781 113.900  0.00  0.00    +0.015 A 
ATOM      7  C   UNL A   1     -15.237 203.796 112.936  0.00  0.00    +0.001 A 
ATOM      8  C   UNL A   1     -14.356 203.742 111.872  0.00  0.00    +0.002 A 
ATOM      9  C   UNL A   1     -13.331 204.687 111.775  0.00  0.00    +0.024 A 
ATOM     10  C   UNL A   1     -13.106 205.648 112.782  0.00  0.00    +0.046 A 
BRANCH   5  17
ATOM     11  N   UNL A   1     -13.266 206.265 116.265  0.00  0.00    -0.293 N 
ATOM     12  C   UNL A   1     -12.292 205.188 116.511  0.00  0.00    +0.136 C 
ATOM     13  C   UNL A   1     -12.803 204.263 117.628  0.00  0.00    +0.178 C 
ATOM     14  O   UNL A   1     -13.036 205.015 118.829  0.00  0.00    -0.377 OA
ATOM     15  C   UNL A   1     -14.007 206.056 118.607  0.00  0.00    +0.178 C 
ATOM     16  C   UNL A   1     -13.562 207.022 117.488  0.00  0.00    +0.136 C 
ATOM     17  C   UNL A   1     -13.867 206.630 115.047  0.00  0.00    +0.248 C 
ATOM     18  O   UNL A   1     -14.390 207.730 114.884  0.00  0.00    -0.270 OA
ENDBRANCH   5  17
ENDBRANCH   1  10
BRANCH   2  19
ATOM     19  C   UNL A   1      -9.722 207.417 113.112  0.00  0.00    +0.227 C 
BRANCH  19  20
ATOM     20  N   UNL A   1      -8.590 207.245 114.092  0.00  0.00    -0.199 N 
BRANCH  20  21
ATOM     21  C   UNL A   1      -7.298 207.048 113.493  0.00  0.00    +0.051 A 
ATOM     22  C   UNL A   1      -7.185 207.128 112.103  0.00  0.00    +0.026 A 
ATOM     23  C   UNL A   1      -5.929 207.023 111.501  0.00  0.00    +0.022 A 
ATOM     24  C   UNL A   1      -4.796 206.826 112.292  0.00  0.00    +0.041 A 
ATOM     25  C   UNL A   1      -4.916 206.665 113.670  0.00  0.00    +0.022 A 
ATOM     26  C   UNL A   1      -6.174 206.747 114.268  0.00  0.00    +0.026 A 
ATOM     27 CL   UNL A   1      -3.237 206.784 111.566  0.00  0.00    -0.084 Cl
ENDBRANCH  20  21
BRANCH  20  28
ATOM     28  S   UNL A   1      -8.594 208.337 115.403  0.00  0.00    +0.043 S 
ATOM     29  O   UNL A   1      -7.947 207.709 116.542  0.00  0.00    -0.155 OA
ATOM     30  O   UNL A   1      -8.151 209.621 114.920  0.00  0.00    -0.155 OA
ATOM     31  C   UNL A   1     -10.329 208.453 115.812  0.00  0.00    +0.218 C 
ENDBRANCH  20  28
ENDBRANCH  19  20
ENDBRANCH   2  19
TORSDOF 6
ENDMDL
MODEL 3
REMARK minimizedAffinity -8.51841259
REMARK minimizedRMSD -1
REMARK  Name = CS160
REMARK  7 active torsions:
REMARK  status: ('A' for Active; 'I' for Inactive)
REMARK    1  A    between atoms: C_7  and  C_9
REMARK    2  A    between atoms: C_14  and  N_15
REMARK    3  A    between atoms: C_16  and  C_18
REMARK    4  A    between atoms: C_18  and  N_19
REMARK    5  A    between atoms: N_19  and  C_20
REMARK    6  A    between atoms: N_19  and  S_27
REMARK    7  A    between atoms: S_27  and  C_30
REMARK                            x       y       z     vdW  Elec       q    Type
REMARK                         _______ _______ _______ _____ _____    ______ ____
ROOT
ATOM      1  N   UNL A   1     -12.109 205.303 113.388  0.00  0.00    -0.283 N 
ATOM      2  C   UNL A   1     -11.463 206.373 114.020  0.00  0.00    +0.236 C 
ATOM      3  O   UNL A   1     -11.914 207.519 114.070  0.00  0.00    -0.274 OA
ATOM      4  H   UNL A   1     -11.999 204.387 113.813  0.00  0.00    +0.155 HD
ENDROOT
BRANCH   1  10
ATOM      5  C   UNL A   1     -14.592 205.170 113.017  0.00  0.00    +0.058 A 
ATOM      6  C   UNL A   1     -15.663 205.512 112.167  0.00  0.00    +0.015 A 
ATOM      7  C   UNL A   1     -15.472 205.944 110.862  0.00  0.00    +0.001 A 
ATOM      8  C   UNL A   1     -14.186 206.180 110.415  0.00  0.00    +0.002 A 
ATOM      9  C   UNL A   1     -13.109 206.001 111.286  0.00  0.00    +0.024 A 
ATOM     10  C   UNL A   1     -13.281 205.496 112.592  0.00  0.00    +0.046 A 
BRANCH   5  17
ATOM     11  N   UNL A   1     -15.059 205.559 115.468  0.00  0.00    -0.293 N 
ATOM     12  C   UNL A   1     -15.329 207.007 115.423  0.00  0.00    +0.136 C 
ATOM     13  C   UNL A   1     -14.243 207.768 116.202  0.00  0.00    +0.178 C 
ATOM     14  O   UNL A   1     -14.191 207.308 117.561  0.00  0.00    -0.377 OA
ATOM     15  C   UNL A   1     -13.902 205.898 117.618  0.00  0.00    +0.178 C 
ATOM     16  C   UNL A   1     -14.950 205.068 116.848  0.00  0.00    +0.136 C 
ATOM     17  C   UNL A   1     -14.940 204.665 114.389  0.00  0.00    +0.248 C 
ATOM     18  O   UNL A   1     -15.053 203.451 114.536  0.00  0.00    -0.270 OA
ENDBRANCH   5  17
ENDBRANCH   1  10
BRANCH   2  19
ATOM     19  C   UNL A   1     -10.098 206.062 114.650  0.00  0.00    +0.227 C 
BRANCH  19  20
ATOM     20  N   UNL A   1      -9.682 207.084 115.676  0.00  0.00    -0.199 N 
BRANCH  20  21
ATOM     21  C   UNL A   1     -10.085 206.787 117.023  0.00  0.00    +0.051 A 
ATOM     22  C   UNL A   1     -10.066 205.457 117.450  0.00  0.00    +0.026 A 
ATOM     23  C   UNL A   1     -10.374 205.150 118.778  0.00  0.00    +0.022 A 
ATOM     24  C   UNL A   1     -10.711 206.172 119.665  0.00  0.00    +0.041 A 
ATOM     25  C   UNL A   1     -10.810 207.488 119.222  0.00  0.00    +0.022 A 
ATOM     26  C   UNL A   1     -10.524 207.792 117.891  0.00  0.00    +0.026 A 
ATOM     27 CL   UNL A   1     -11.005 205.810 121.321  0.00  0.00    -0.084 Cl
ENDBRANCH  20  21
BRANCH  20  28
ATOM     28  S   UNL A   1      -8.074 207.639 115.534  0.00  0.00    +0.043 S 
ATOM     29  O   UNL A   1      -8.090 209.065 115.256  0.00  0.00    -0.155 OA
ATOM     30  O   UNL A   1      -7.317 207.113 116.641  0.00  0.00    -0.155 OA
ATOM     31  C   UNL A   1      -7.516 206.842 114.035  0.00  0.00    +0.218 C 
ENDBRANCH  20  28
ENDBRANCH  19  20
ENDBRANCH   2  19
TORSDOF 6
ENDMDL
MODEL 4
REMARK minimizedAffinity -8.3867588
REMARK minimizedRMSD -1
REMARK  Name = CS160
REMARK  7 active torsions:
REMARK  status: ('A' for Active; 'I' for Inactive)
REMARK    1  A    between atoms: C_7  and  C_9
REMARK    2  A    between atoms: C_14  and  N_15
REMARK    3  A    between atoms: C_16  and  C_18
REMARK    4  A    between atoms: C_18  and  N_19
REMARK    5  A    between atoms: N_19  and  C_20
REMARK    6  A    between atoms: N_19  and  S_27
REMARK    7  A    between atoms: S_27  and  C_30
REMARK                            x       y       z     vdW  Elec       q    Type
REMARK                         _______ _______ _______ _____ _____    ______ ____
ROOT
ATOM      1  N   UNL A   1     -12.091 206.278 114.421  0.00  0.00    -0.283 N 
ATOM      2  C   UNL A   1     -11.491 205.243 115.148  0.00  0.00    +0.236 C 
ATOM      3  O   UNL A   1     -10.607 204.509 114.703  0.00  0.00    -0.274 OA
ATOM      4  H   UNL A   1     -12.359 207.109 114.942  0.00  0.00    +0.155 HD
ENDROOT
BRANCH   1  10
ATOM      5  C   UNL A   1     -12.548 205.790 111.996  0.00  0.00    +0.058 A 
ATOM      6  C   UNL A   1     -12.264 206.147 110.663  0.00  0.00    +0.015 A 
ATOM      7  C   UNL A   1     -11.185 206.950 110.318  0.00  0.00    +0.001 A 
ATOM      8  C   UNL A   1     -10.437 207.536 111.321  0.00  0.00    +0.002 A 
ATOM      9  C   UNL A   1     -10.791 207.328 112.657  0.00  0.00    +0.024 A 
ATOM     10  C   UNL A   1     -11.840 206.461 113.024  0.00  0.00    +0.046 A 
BRANCH   5  17
ATOM     11  N   UNL A   1     -15.024 205.298 111.943  0.00  0.00    -0.293 N 
ATOM     12  C   UNL A   1     -15.452 206.374 111.031  0.00  0.00    +0.136 C 
ATOM     13  C   UNL A   1     -16.352 207.370 111.782  0.00  0.00    +0.178 C 
ATOM     14  O   UNL A   1     -17.493 206.694 112.333  0.00  0.00    -0.377 OA
ATOM     15  C   UNL A   1     -17.086 205.656 113.246  0.00  0.00    +0.178 C 
ATOM     16  C   UNL A   1     -16.170 204.620 112.561  0.00  0.00    +0.136 C 
ATOM     17  C   UNL A   1     -13.714 204.872 112.227  0.00  0.00    +0.248 C 
ATOM     18  O   UNL A   1     -13.482 203.772 112.723  0.00  0.00    -0.270 OA
ENDBRANCH   5  17
ENDBRANCH   1  10
BRANCH   2  19
ATOM     19  C   UNL A   1     -12.019 205.025 116.573  0.00  0.00    +0.227 C 
BRANCH  19  20
ATOM     20  N   UNL A   1     -13.468 205.412 116.725  0.00  0.00    -0.199 N 
BRANCH  20  21
ATOM     21  C   UNL A   1     -14.365 204.312 116.956  0.00  0.00    +0.051 A 
ATOM     22  C   UNL A   1     -13.851 203.130 117.493  0.00  0.00    +0.026 A 
ATOM     23  C   UNL A   1     -14.714 202.076 117.804  0.00  0.00    +0.022 A 
ATOM     24  C   UNL A   1     -16.082 202.207 117.562  0.00  0.00    +0.041 A 
ATOM     25  C   UNL A   1     -16.586 203.352 116.952  0.00  0.00    +0.022 A 
ATOM     26  C   UNL A   1     -15.720 204.395 116.621  0.00  0.00    +0.026 A 
ATOM     27 CL   UNL A   1     -17.160 200.948 118.024  0.00  0.00    -0.084 Cl
ENDBRANCH  20  21
BRANCH  20  28
ATOM     28  S   UNL A   1     -13.755 206.769 117.719  0.00  0.00    +0.043 S 
ATOM     29  O   UNL A   1     -14.434 207.789 116.940  0.00  0.00    -0.155 OA
ATOM     30  O   UNL A   1     -14.309 206.304 118.966  0.00  0.00    -0.155 OA
ATOM     31  C   UNL A   1     -12.106 207.385 118.026  0.00  0.00    +0.218 C 
ENDBRANCH  20  28
ENDBRANCH  19  20
ENDBRANCH   2  19
TORSDOF 6
ENDMDL
MODEL 5
REMARK minimizedAffinity -8.37977314
REMARK minimizedRMSD -1
REMARK  Name = CS160
REMARK  7 active torsions:
REMARK  status: ('A' for Active; 'I' for Inactive)
REMARK    1  A    between atoms: C_7  and  C_9
REMARK    2  A    between atoms: C_14  and  N_15
REMARK    3  A    between atoms: C_16  and  C_18
REMARK    4  A    between atoms: C_18  and  N_19
REMARK    5  A    between atoms: N_19  and  C_20
REMARK    6  A    between atoms: N_19  and  S_27
REMARK    7  A    between atoms: S_27  and  C_30
REMARK                            x       y       z     vdW  Elec       q    Type
REMARK                         _______ _______ _______ _____ _____    ______ ____
ROOT
ATOM      1  N   UNL A   1     -10.602 206.292 116.189  0.00  0.00    -0.283 N 
ATOM      2  C   UNL A   1     -10.896 204.983 116.590  0.00  0.00    +0.236 C 
ATOM      3  O   UNL A   1     -10.821 204.000 115.849  0.00  0.00    -0.274 OA
ATOM      4  H   UNL A   1     -10.175 206.899 116.884  0.00  0.00    +0.155 HD
ENDROOT
BRANCH   1  10
ATOM      5  C   UNL A   1     -11.365 206.903 113.871  0.00  0.00    +0.058 A 
ATOM      6  C   UNL A   1     -10.964 207.314 112.584  0.00  0.00    +0.015 A 
ATOM      7  C   UNL A   1      -9.647 207.240 112.152  0.00  0.00    +0.001 A 
ATOM      8  C   UNL A   1      -8.665 206.880 113.055  0.00  0.00    +0.002 A 
ATOM      9  C   UNL A   1      -9.010 206.618 114.383  0.00  0.00    +0.024 A 
ATOM     10  C   UNL A   1     -10.351 206.621 114.820  0.00  0.00    +0.046 A 
BRANCH   5  17
ATOM     11  N   UNL A   1     -13.757 206.188 113.497  0.00  0.00    -0.293 N 
ATOM     12  C   UNL A   1     -13.510 204.931 112.770  0.00  0.00    +0.136 C 
ATOM     13  C   UNL A   1     -14.030 205.049 111.327  0.00  0.00    +0.178 C 
ATOM     14  O   UNL A   1     -15.431 205.364 111.326  0.00  0.00    -0.377 OA
ATOM     15  C   UNL A   1     -15.681 206.605 112.013  0.00  0.00    +0.178 C 
ATOM     16  C   UNL A   1     -15.177 206.562 113.471  0.00  0.00    +0.136 C 
ATOM     17  C   UNL A   1     -12.830 206.984 114.193  0.00  0.00    +0.248 C 
ATOM     18  O   UNL A   1     -13.182 207.808 115.033  0.00  0.00    -0.270 OA
ENDBRANCH   5  17
ENDBRANCH   1  10
BRANCH   2  19
ATOM     19  C   UNL A   1     -11.365 204.810 118.041  0.00  0.00    +0.227 C 
BRANCH  19  20
ATOM     20  N   UNL A   1     -12.663 205.522 118.324  0.00  0.00    -0.199 N 
BRANCH  20  21
ATOM     21  C   UNL A   1     -13.836 204.697 118.231  0.00  0.00    +0.051 A 
ATOM     22  C   UNL A   1     -14.561 204.694 117.037  0.00  0.00    +0.026 A 
ATOM     23  C   UNL A   1     -15.656 203.839 116.891  0.00  0.00    +0.022 A 
ATOM     24  C   UNL A   1     -16.028 203.004 117.944  0.00  0.00    +0.041 A 
ATOM     25  C   UNL A   1     -15.358 203.063 119.163  0.00  0.00    +0.022 A 
ATOM     26  C   UNL A   1     -14.278 203.933 119.316  0.00  0.00    +0.026 A 
ATOM     27 CL   UNL A   1     -17.320 201.887 117.740  0.00  0.00    -0.084 Cl
ENDBRANCH  20  21
BRANCH  20  28
ATOM     28  S   UNL A   1     -12.642 206.556 119.682  0.00  0.00    +0.043 S 
ATOM     29  O   UNL A   1     -13.915 207.251 119.765  0.00  0.00    -0.155 OA
ATOM     30  O   UNL A   1     -12.133 205.812 120.806  0.00  0.00    -0.155 OA
ATOM     31  C   UNL A   1     -11.430 207.784 119.219  0.00  0.00    +0.218 C 
ENDBRANCH  20  28
ENDBRANCH  19  20
ENDBRANCH   2  19
TORSDOF 6
ENDMDL
MODEL 6
REMARK minimizedAffinity -8.08093929
REMARK minimizedRMSD -1
REMARK  Name = CS160
REMARK  7 active torsions:
REMARK  status: ('A' for Active; 'I' for Inactive)
REMARK    1  A    between atoms: C_7  and  C_9
REMARK    2  A    between atoms: C_14  and  N_15
REMARK    3  A    between atoms: C_16  and  C_18
REMARK    4  A    between atoms: C_18  and  N_19
REMARK    5  A    between atoms: N_19  and  C_20
REMARK    6  A    between atoms: N_19  and  S_27
REMARK    7  A    between atoms: S_27  and  C_30
REMARK                            x       y       z     vdW  Elec       q    Type
REMARK                         _______ _______ _______ _____ _____    ______ ____
ROOT
ATOM      1  N   UNL A   1     -15.066 203.321 118.215  0.00  0.00    -0.283 N 
ATOM      2  C   UNL A   1     -15.364 204.237 117.200  0.00  0.00    +0.236 C 
ATOM      3  O   UNL A   1     -16.237 204.064 116.347  0.00  0.00    -0.274 OA
ATOM      4  H   UNL A   1     -14.783 203.707 119.112  0.00  0.00    +0.155 HD
ENDROOT
BRANCH   1  10
ATOM      5  C   UNL A   1     -16.770 201.661 119.032  0.00  0.00    +0.058 A 
ATOM      6  C   UNL A   1     -17.299 200.363 118.880  0.00  0.00    +0.015 A 
ATOM      7  C   UNL A   1     -16.641 199.368 118.169  0.00  0.00    +0.001 A 
ATOM      8  C   UNL A   1     -15.495 199.690 117.468  0.00  0.00    +0.002 A 
ATOM      9  C   UNL A   1     -15.031 201.008 117.471  0.00  0.00    +0.024 A 
ATOM     10  C   UNL A   1     -15.647 202.014 118.244  0.00  0.00    +0.046 A 
BRANCH   5  17
ATOM     11  N   UNL A   1     -17.127 202.956 121.170  0.00  0.00    -0.293 N 
ATOM     12  C   UNL A   1     -15.770 202.849 121.733  0.00  0.00    +0.136 C 
ATOM     13  C   UNL A   1     -15.802 202.018 123.026  0.00  0.00    +0.178 C 
ATOM     14  O   UNL A   1     -16.697 202.613 123.979  0.00  0.00    -0.377 OA
ATOM     15  C   UNL A   1     -18.033 202.699 123.448  0.00  0.00    +0.178 C 
ATOM     16  C   UNL A   1     -18.077 203.517 122.140  0.00  0.00    +0.136 C 
ATOM     17  C   UNL A   1     -17.557 202.627 119.872  0.00  0.00    +0.248 C 
ATOM     18  O   UNL A   1     -18.606 203.063 119.405  0.00  0.00    -0.270 OA
ENDBRANCH   5  17
ENDBRANCH   1  10
BRANCH   2  19
ATOM     19  C   UNL A   1     -14.505 205.509 117.164  0.00  0.00    +0.227 C 
BRANCH  19  20
ATOM     20  N   UNL A   1     -13.313 205.384 116.250  0.00  0.00    -0.199 N 
BRANCH  20  21
ATOM     21  C   UNL A   1     -13.593 205.616 114.859  0.00  0.00    +0.051 A 
ATOM     22  C   UNL A   1     -13.064 204.735 113.913  0.00  0.00    +0.026 A 
ATOM     23  C   UNL A   1     -13.388 204.888 112.563  0.00  0.00    +0.022 A 
ATOM     24  C   UNL A   1     -14.228 205.930 112.167  0.00  0.00    +0.041 A 
ATOM     25  C   UNL A   1     -14.691 206.857 113.096  0.00  0.00    +0.022 A 
ATOM     26  C   UNL A   1     -14.348 206.716 114.441  0.00  0.00    +0.026 A 
ATOM     27 CL   UNL A   1     -14.701 206.072 110.519  0.00  0.00    -0.084 Cl
ENDBRANCH  20  21
BRANCH  20  28
ATOM     28  S   UNL A   1     -11.888 206.136 116.811  0.00  0.00    +0.043 S 
ATOM     29  O   UNL A   1     -10.793 205.795 115.919  0.00  0.00    -0.155 OA
ATOM     30  O   UNL A   1     -12.193 207.512 117.111  0.00  0.00    -0.155 OA
ATOM     31  C   UNL A   1     -11.570 205.277 118.345  0.00  0.00    +0.218 C 
ENDBRANCH  20  28
ENDBRANCH  19  20
ENDBRANCH   2  19
TORSDOF 6
ENDMDL
MODEL 7
REMARK minimizedAffinity -8.03877831
REMARK minimizedRMSD -1
REMARK  Name = CS160
REMARK  7 active torsions:
REMARK  status: ('A' for Active; 'I' for Inactive)
REMARK    1  A    between atoms: C_7  and  C_9
REMARK    2  A    between atoms: C_14  and  N_15
REMARK    3  A    between atoms: C_16  and  C_18
REMARK    4  A    between atoms: C_18  and  N_19
REMARK    5  A    between atoms: N_19  and  C_20
REMARK    6  A    between atoms: N_19  and  S_27
REMARK    7  A    between atoms: S_27  and  C_30
REMARK                            x       y       z     vdW  Elec       q    Type
REMARK                         _______ _______ _______ _____ _____    ______ ____
ROOT
ATOM      1  N   UNL A   1     -16.143 203.537 117.921  0.00  0.00    -0.283 N 
ATOM      2  C   UNL A   1     -14.798 203.830 117.662  0.00  0.00    +0.236 C 
ATOM      3  O   UNL A   1     -13.891 202.996 117.692  0.00  0.00    -0.274 OA
ATOM      4  H   UNL A   1     -16.835 204.057 117.389  0.00  0.00    +0.155 HD
ENDROOT
BRANCH   1  10
ATOM      5  C   UNL A   1     -17.052 202.034 119.720  0.00  0.00    +0.058 A 
ATOM      6  C   UNL A   1     -17.516 200.740 120.033  0.00  0.00    +0.015 A 
ATOM      7  C   UNL A   1     -17.300 199.648 119.204  0.00  0.00    +0.001 A 
ATOM      8  C   UNL A   1     -16.731 199.852 117.962  0.00  0.00    +0.002 A 
ATOM      9  C   UNL A   1     -16.403 201.148 117.556  0.00  0.00    +0.024 A 
ATOM     10  C   UNL A   1     -16.552 202.258 118.414  0.00  0.00    +0.046 A 
BRANCH   5  17
ATOM     11  N   UNL A   1     -18.581 203.269 121.306  0.00  0.00    -0.293 N 
ATOM     12  C   UNL A   1     -19.651 202.263 121.423  0.00  0.00    +0.136 C 
ATOM     13  C   UNL A   1     -20.953 202.810 120.813  0.00  0.00    +0.178 C 
ATOM     14  O   UNL A   1     -21.336 204.030 121.467  0.00  0.00    -0.377 OA
ATOM     15  C   UNL A   1     -20.306 205.029 121.337  0.00  0.00    +0.178 C 
ATOM     16  C   UNL A   1     -18.963 204.545 121.923  0.00  0.00    +0.136 C 
ATOM     17  C   UNL A   1     -17.307 203.117 120.730  0.00  0.00    +0.248 C 
ATOM     18  O   UNL A   1     -16.384 203.888 120.981  0.00  0.00    -0.270 OA
ENDBRANCH   5  17
ENDBRANCH   1  10
BRANCH   2  19
ATOM     19  C   UNL A   1     -14.474 205.299 117.355  0.00  0.00    +0.227 C 
BRANCH  19  20
ATOM     20  N   UNL A   1     -13.319 205.455 116.399  0.00  0.00    -0.199 N 
BRANCH  20  21
ATOM     21  C   UNL A   1     -13.695 205.674 115.029  0.00  0.00    +0.051 A 
ATOM     22  C   UNL A   1     -13.155 204.843 114.046  0.00  0.00    +0.026 A 
ATOM     23  C   UNL A   1     -13.566 204.980 112.718  0.00  0.00    +0.022 A 
ATOM     24  C   UNL A   1     -14.505 205.956 112.381  0.00  0.00    +0.041 A 
ATOM     25  C   UNL A   1     -14.983 206.838 113.345  0.00  0.00    +0.022 A 
ATOM     26  C   UNL A   1     -14.555 206.715 114.667  0.00  0.00    +0.026 A 
ATOM     27 CL   UNL A   1     -15.081 206.072 110.764  0.00  0.00    -0.084 Cl
ENDBRANCH  20  21
BRANCH  20  28
ATOM     28  S   UNL A   1     -12.057 206.464 116.948  0.00  0.00    +0.043 S 
ATOM     29  O   UNL A   1     -11.372 207.029 115.798  0.00  0.00    -0.155 OA
ATOM     30  O   UNL A   1     -12.580 207.316 117.986  0.00  0.00    -0.155 OA
ATOM     31  C   UNL A   1     -10.919 205.301 117.687  0.00  0.00    +0.218 C 
ENDBRANCH  20  28
ENDBRANCH  19  20
ENDBRANCH   2  19
TORSDOF 6
ENDMDL
MODEL 8
REMARK minimizedAffinity -7.95271873
REMARK minimizedRMSD -1
REMARK  Name = CS160
REMARK  7 active torsions:
REMARK  status: ('A' for Active; 'I' for Inactive)
REMARK    1  A    between atoms: C_7  and  C_9
REMARK    2  A    between atoms: C_14  and  N_15
REMARK    3  A    between atoms: C_16  and  C_18
REMARK    4  A    between atoms: C_18  and  N_19
REMARK    5  A    between atoms: N_19  and  C_20
REMARK    6  A    between atoms: N_19  and  S_27
REMARK    7  A    between atoms: S_27  and  C_30
REMARK                            x       y       z     vdW  Elec       q    Type
REMARK                         _______ _______ _______ _____ _____    ______ ____
ROOT
ATOM      1  N   UNL A   1     -14.256 203.771 116.433  0.00  0.00    -0.283 N 
ATOM      2  C   UNL A   1     -15.089 204.337 115.461  0.00  0.00    +0.236 C 
ATOM      3  O   UNL A   1     -16.134 204.941 115.713  0.00  0.00    -0.274 OA
ATOM      4  H   UNL A   1     -13.257 203.791 116.247  0.00  0.00    +0.155 HD
ENDROOT
BRANCH   1  10
ATOM      5  C   UNL A   1     -14.263 204.649 118.790  0.00  0.00    +0.058 A 
ATOM      6  C   UNL A   1     -14.806 204.510 120.083  0.00  0.00    +0.015 A 
ATOM      7  C   UNL A   1     -15.505 203.379 120.482  0.00  0.00    +0.001 A 
ATOM      8  C   UNL A   1     -15.802 202.409 119.544  0.00  0.00    +0.002 A 
ATOM      9  C   UNL A   1     -15.414 202.592 118.215  0.00  0.00    +0.024 A 
ATOM     10  C   UNL A   1     -14.643 203.701 117.808  0.00  0.00    +0.046 A 
BRANCH   5  17
ATOM     11  N   UNL A   1     -12.078 205.896 118.577  0.00  0.00    -0.293 N 
ATOM     12  C   UNL A   1     -11.166 204.743 118.467  0.00  0.00    +0.136 C 
ATOM     13  C   UNL A   1     -10.239 204.690 119.692  0.00  0.00    +0.178 C 
ATOM     14  O   UNL A   1      -9.493 205.911 119.807  0.00  0.00    -0.377 OA
ATOM     15  C   UNL A   1     -10.375 207.043 119.941  0.00  0.00    +0.178 C 
ATOM     16  C   UNL A   1     -11.344 207.157 118.746  0.00  0.00    +0.136 C 
ATOM     17  C   UNL A   1     -13.482 205.901 118.505  0.00  0.00    +0.248 C 
ATOM     18  O   UNL A   1     -14.117 206.926 118.270  0.00  0.00    -0.270 OA
ENDBRANCH   5  17
ENDBRANCH   1  10
BRANCH   2  19
ATOM     19  C   UNL A   1     -14.653 204.144 114.002  0.00  0.00    +0.227 C 
BRANCH  19  20
ATOM     20  N   UNL A   1     -14.055 205.391 113.401  0.00  0.00    -0.199 N 
BRANCH  20  21
ATOM     21  C   UNL A   1     -12.797 205.791 113.970  0.00  0.00    +0.051 A 
ATOM     22  C   UNL A   1     -12.686 207.070 114.519  0.00  0.00    +0.026 A 
ATOM     23  C   UNL A   1     -11.501 207.454 115.152  0.00  0.00    +0.022 A 
ATOM     24  C   UNL A   1     -10.431 206.561 115.218  0.00  0.00    +0.041 A 
ATOM     25  C   UNL A   1     -10.510 205.316 114.601  0.00  0.00    +0.022 A 
ATOM     26  C   UNL A   1     -11.685 204.941 113.950  0.00  0.00    +0.026 A 
ATOM     27 CL   UNL A   1      -9.001 206.995 116.072  0.00  0.00    -0.084 Cl
ENDBRANCH  20  21
BRANCH  20  28
ATOM     28  S   UNL A   1     -14.110 205.472 111.697  0.00  0.00    +0.043 S 
ATOM     29  O   UNL A   1     -13.068 206.372 111.235  0.00  0.00    -0.155 OA
ATOM     30  O   UNL A   1     -14.203 204.128 111.186  0.00  0.00    -0.155 OA
ATOM     31  C   UNL A   1     -15.662 206.304 111.395  0.00  0.00    +0.218 C 
ENDBRANCH  20  28
ENDBRANCH  19  20
ENDBRANCH   2  19
TORSDOF 6
ENDMDL
MODEL 9
REMARK minimizedAffinity -7.88356876
REMARK minimizedRMSD -1
REMARK  Name = CS160
REMARK  7 active torsions:
REMARK  status: ('A' for Active; 'I' for Inactive)
REMARK    1  A    between atoms: C_7  and  C_9
REMARK    2  A    between atoms: C_14  and  N_15
REMARK    3  A    between atoms: C_16  and  C_18
REMARK    4  A    between atoms: C_18  and  N_19
REMARK    5  A    between atoms: N_19  and  C_20
REMARK    6  A    between atoms: N_19  and  S_27
REMARK    7  A    between atoms: S_27  and  C_30
REMARK                            x       y       z     vdW  Elec       q    Type
REMARK                         _______ _______ _______ _____ _____    ______ ____
ROOT
ATOM      1  N   UNL A   1     -11.060 205.407 114.150  0.00  0.00    -0.283 N 
ATOM      2  C   UNL A   1     -10.704 206.329 115.142  0.00  0.00    +0.236 C 
ATOM      3  O   UNL A   1     -10.864 207.547 115.042  0.00  0.00    -0.274 OA
ATOM      4  H   UNL A   1     -11.400 204.503 114.467  0.00  0.00    +0.155 HD
ENDROOT
BRANCH   1  10
ATOM      5  C   UNL A   1     -12.801 205.629 112.348  0.00  0.00    +0.058 A 
ATOM      6  C   UNL A   1     -13.113 206.189 111.093  0.00  0.00    +0.015 A 
ATOM      7  C   UNL A   1     -12.146 206.722 110.251  0.00  0.00    +0.001 A 
ATOM      8  C   UNL A   1     -10.847 206.836 110.710  0.00  0.00    +0.002 A 
ATOM      9  C   UNL A   1     -10.536 206.434 112.011  0.00  0.00    +0.024 A 
ATOM     10  C   UNL A   1     -11.492 205.827 112.853  0.00  0.00    +0.046 A 
BRANCH   5  17
ATOM     11  N   UNL A   1     -14.595 205.801 114.116  0.00  0.00    -0.293 N 
ATOM     12  C   UNL A   1     -14.663 207.268 114.233  0.00  0.00    +0.136 C 
ATOM     13  C   UNL A   1     -14.192 207.705 115.630  0.00  0.00    +0.178 C 
ATOM     14  O   UNL A   1     -14.994 207.083 116.645  0.00  0.00    -0.377 OA
ATOM     15  C   UNL A   1     -14.915 205.647 116.556  0.00  0.00    +0.178 C 
ATOM     16  C   UNL A   1     -15.368 205.134 115.173  0.00  0.00    +0.136 C 
ATOM     17  C   UNL A   1     -13.935 205.038 113.137  0.00  0.00    +0.248 C 
ATOM     18  O   UNL A   1     -14.215 203.859 112.933  0.00  0.00    -0.270 OA
ENDBRANCH   5  17
ENDBRANCH   1  10
BRANCH   2  19
ATOM     19  C   UNL A   1     -10.048 205.746 116.402  0.00  0.00    +0.227 C 
BRANCH  19  20
ATOM     20  N   UNL A   1     -10.202 206.638 117.607  0.00  0.00    -0.199 N 
BRANCH  20  21
ATOM     21  C   UNL A   1     -11.381 206.395 118.391  0.00  0.00    +0.051 A 
ATOM     22  C   UNL A   1     -11.729 205.075 118.687  0.00  0.00    +0.026 A 
ATOM     23  C   UNL A   1     -12.822 204.814 119.516  0.00  0.00    +0.022 A 
ATOM     24  C   UNL A   1     -13.569 205.874 120.032  0.00  0.00    +0.041 A 
ATOM     25  C   UNL A   1     -13.275 207.186 119.673  0.00  0.00    +0.022 A 
ATOM     26  C   UNL A   1     -12.196 207.445 118.827  0.00  0.00    +0.026 A 
ATOM     27 CL   UNL A   1     -14.862 205.562 121.123  0.00  0.00    -0.084 Cl
ENDBRANCH  20  21
BRANCH  20  28
ATOM     28  S   UNL A   1      -8.783 206.862 118.528  0.00  0.00    +0.043 S 
ATOM     29  O   UNL A   1      -9.009 207.925 119.492  0.00  0.00    -0.155 OA
ATOM     30  O   UNL A   1      -8.315 205.567 118.955  0.00  0.00    -0.155 OA
ATOM     31  C   UNL A   1      -7.633 207.512 117.325  0.00  0.00    +0.218 C 
ENDBRANCH  20  28
ENDBRANCH  19  20
ENDBRANCH   2  19
TORSDOF 6
ENDMDL
