MODEL 1
REMARK minimizedAffinity -7.68233871
REMARK minimizedRMSD -1
REMARK  Name = CS47
REMARK  10 active torsions:
REMARK  status: ('A' for Active; 'I' for Inactive)
REMARK    1  A    between atoms: C_1  and  N_2
REMARK    2  A    between atoms: C_3  and  S_4
REMARK    3  A    between atoms: S_4  and  C_5
REMARK    4  A    between atoms: C_5  and  C_6
REMARK    5  A    between atoms: N_8  and  C_9
REMARK    6  A    between atoms: C_13  and  O_14
REMARK    7  A    between atoms: O_14  and  C_15
REMARK    8  A    between atoms: C_17  and  O_18
REMARK    9  A    between atoms: O_18  and  C_19
REMARK   10  A    between atoms: C_22  and  C_23
REMARK                            x       y       z     vdW  Elec       q    Type
REMARK                         _______ _______ _______ _____ _____    ______ ____
ROOT
ATOM      1  C   UNL A   1      -9.962 207.373 117.405  0.00  0.00    +0.228 C 
ATOM      2  O   UNL A   1      -9.393 206.282 117.408  0.00  0.00    -0.275 OA
ATOM      3  N   UNL A   1      -9.929 208.274 116.345  0.00  0.00    -0.282 N 
ATOM      4  H   UNL A   1     -10.145 209.237 116.567  0.00  0.00    +0.155 HD
ENDROOT
BRANCH   3   5
ATOM      5  C   UNL A   1      -9.183 208.030 115.170  0.00  0.00    +0.077 A 
ATOM      6  C   UNL A   1      -9.863 207.631 114.010  0.00  0.00    +0.050 A 
ATOM      7  C   UNL A   1      -9.200 207.443 112.785  0.00  0.00    +0.085 A 
ATOM      8 CL   UNL A   1     -10.232 207.059 111.453  0.00  0.00    -0.080 Cl
ATOM      9  C   UNL A   1      -7.814 207.610 112.717  0.00  0.00    +0.142 A 
ATOM     10  C   UNL A   1      -7.143 208.024 113.882  0.00  0.00    +0.094 A 
ATOM     11  C   UNL A   1      -7.805 208.254 115.097  0.00  0.00    +0.145 A 
BRANCH   9  12
ATOM     12  O   UNL A   1      -6.945 207.453 111.673  0.00  0.00    -0.493 OA
ATOM     13  C   UNL A   1      -5.708 206.786 111.852  0.00  0.00    +0.277 C 
ENDBRANCH   9  12
BRANCH  11  14
ATOM     14  O   UNL A   1      -6.988 208.726 116.088  0.00  0.00    -0.493 OA
ATOM     15  C   UNL A   1      -6.211 209.881 115.798  0.00  0.00    +0.277 C 
ENDBRANCH  11  14
ENDBRANCH   3   5
BRANCH   1  16
ATOM     16  C   UNL A   1     -10.771 207.840 118.606  0.00  0.00    +0.173 C 
BRANCH  16  17
ATOM     17  S   UNL A   1     -12.296 206.865 118.752  0.00  0.00    -0.077 S 
BRANCH  17  20
ATOM     18  C   UNL A   1     -12.372 204.421 116.654  0.00  0.00    +0.153 C 
ATOM     19  N   UNL A   1     -12.908 205.719 116.343  0.00  0.00    -0.305 N 
ATOM     20  C   UNL A   1     -12.858 206.848 117.116  0.00  0.00    +0.192 A 
ATOM     21  N   UNL A   1     -13.325 207.871 116.450  0.00  0.00    -0.122 NA
ATOM     22  N   UNL A   1     -13.708 207.414 115.210  0.00  0.00    -0.128 NA
ATOM     23  C   UNL A   1     -13.494 206.107 115.150  0.00  0.00    +0.165 A 
BRANCH  23  24
ATOM     24  C   UNL A   1     -13.773 205.260 113.974  0.00  0.00    +0.019 A 
ATOM     25  C   UNL A   1     -13.118 205.529 112.767  0.00  0.00    +0.012 A 
ATOM     26  C   UNL A   1     -13.343 204.738 111.635  0.00  0.00    +0.001 A 
ATOM     27  C   UNL A   1     -14.231 203.668 111.697  0.00  0.00    +0.000 A 
ATOM     28  C   UNL A   1     -14.918 203.407 112.881  0.00  0.00    +0.001 A 
ATOM     29  C   UNL A   1     -14.708 204.212 114.004  0.00  0.00    +0.012 A 
ENDBRANCH  23  24
ENDBRANCH  17  20
ENDBRANCH  16  17
ENDBRANCH   1  16
TORSDOF 7
ENDMDL
MODEL 2
REMARK minimizedAffinity -7.68190813
REMARK minimizedRMSD -1
REMARK  Name = CS47
REMARK  10 active torsions:
REMARK  status: ('A' for Active; 'I' for Inactive)
REMARK    1  A    between atoms: C_1  and  N_2
REMARK    2  A    between atoms: C_3  and  S_4
REMARK    3  A    between atoms: S_4  and  C_5
REMARK    4  A    between atoms: C_5  and  C_6
REMARK    5  A    between atoms: N_8  and  C_9
REMARK    6  A    between atoms: C_13  and  O_14
REMARK    7  A    between atoms: O_14  and  C_15
REMARK    8  A    between atoms: C_17  and  O_18
REMARK    9  A    between atoms: O_18  and  C_19
REMARK   10  A    between atoms: C_22  and  C_23
REMARK                            x       y       z     vdW  Elec       q    Type
REMARK                         _______ _______ _______ _____ _____    ______ ____
ROOT
ATOM      1  C   UNL A   1     -11.252 205.605 117.631  0.00  0.00    +0.228 C 
ATOM      2  O   UNL A   1     -10.815 204.513 117.271  0.00  0.00    -0.275 OA
ATOM      3  N   UNL A   1     -11.146 206.778 116.888  0.00  0.00    -0.282 N 
ATOM      4  H   UNL A   1     -11.242 207.645 117.401  0.00  0.00    +0.155 HD
ENDROOT
BRANCH   3   5
ATOM      5  C   UNL A   1     -10.468 206.829 115.650  0.00  0.00    +0.077 A 
ATOM      6  C   UNL A   1     -11.168 206.488 114.483  0.00  0.00    +0.050 A 
ATOM      7  C   UNL A   1     -10.583 206.586 113.209  0.00  0.00    +0.085 A 
ATOM      8 CL   UNL A   1     -11.647 206.226 111.894  0.00  0.00    -0.080 Cl
ATOM      9  C   UNL A   1      -9.251 206.990 113.089  0.00  0.00    +0.142 A 
ATOM     10  C   UNL A   1      -8.561 207.342 114.263  0.00  0.00    +0.094 A 
ATOM     11  C   UNL A   1      -9.152 207.287 115.534  0.00  0.00    +0.145 A 
BRANCH   9  12
ATOM     12  O   UNL A   1      -8.455 207.127 111.986  0.00  0.00    -0.493 OA
ATOM     13  C   UNL A   1      -7.043 207.122 112.104  0.00  0.00    +0.277 C 
ENDBRANCH   9  12
BRANCH  11  14
ATOM     14  O   UNL A   1      -8.342 207.745 116.538  0.00  0.00    -0.493 OA
ATOM     15  C   UNL A   1      -6.957 207.884 116.245  0.00  0.00    +0.277 C 
ENDBRANCH  11  14
ENDBRANCH   3   5
BRANCH   1  16
ATOM     16  C   UNL A   1     -11.967 205.765 118.965  0.00  0.00    +0.173 C 
BRANCH  16  17
ATOM     17  S   UNL A   1     -13.671 205.150 118.841  0.00  0.00    -0.077 S 
BRANCH  17  20
ATOM     18  C   UNL A   1     -14.416 204.075 115.896  0.00  0.00    +0.153 C 
ATOM     19  N   UNL A   1     -14.615 205.444 116.289  0.00  0.00    -0.305 N 
ATOM     20  C   UNL A   1     -14.262 206.031 117.475  0.00  0.00    +0.192 A 
ATOM     21  N   UNL A   1     -14.474 207.319 117.421  0.00  0.00    -0.122 NA
ATOM     22  N   UNL A   1     -14.993 207.599 116.177  0.00  0.00    -0.128 NA
ATOM     23  C   UNL A   1     -15.116 206.466 115.500  0.00  0.00    +0.165 A 
BRANCH  23  24
ATOM     24  C   UNL A   1     -15.631 206.360 114.121  0.00  0.00    +0.019 A 
ATOM     25  C   UNL A   1     -14.894 206.919 113.071  0.00  0.00    +0.012 A 
ATOM     26  C   UNL A   1     -15.340 206.824 111.749  0.00  0.00    +0.001 A 
ATOM     27  C   UNL A   1     -16.533 206.169 111.460  0.00  0.00    +0.000 A 
ATOM     28  C   UNL A   1     -17.298 205.636 112.496  0.00  0.00    +0.001 A 
ATOM     29  C   UNL A   1     -16.861 205.752 113.819  0.00  0.00    +0.012 A 
ENDBRANCH  23  24
ENDBRANCH  17  20
ENDBRANCH  16  17
ENDBRANCH   1  16
TORSDOF 7
ENDMDL
MODEL 3
REMARK minimizedAffinity -7.46469212
REMARK minimizedRMSD -1
REMARK  Name = CS47
REMARK  10 active torsions:
REMARK  status: ('A' for Active; 'I' for Inactive)
REMARK    1  A    between atoms: C_1  and  N_2
REMARK    2  A    between atoms: C_3  and  S_4
REMARK    3  A    between atoms: S_4  and  C_5
REMARK    4  A    between atoms: C_5  and  C_6
REMARK    5  A    between atoms: N_8  and  C_9
REMARK    6  A    between atoms: C_13  and  O_14
REMARK    7  A    between atoms: O_14  and  C_15
REMARK    8  A    between atoms: C_17  and  O_18
REMARK    9  A    between atoms: O_18  and  C_19
REMARK   10  A    between atoms: C_22  and  C_23
REMARK                            x       y       z     vdW  Elec       q    Type
REMARK                         _______ _______ _______ _____ _____    ______ ____
ROOT
ATOM      1  C   UNL A   1     -11.143 206.204 117.674  0.00  0.00    +0.228 C 
ATOM      2  O   UNL A   1     -10.633 205.167 117.250  0.00  0.00    -0.275 OA
ATOM      3  N   UNL A   1     -11.053 207.440 117.041  0.00  0.00    -0.282 N 
ATOM      4  H   UNL A   1     -11.219 208.254 117.619  0.00  0.00    +0.155 HD
ENDROOT
BRANCH   3   5
ATOM      5  C   UNL A   1     -10.311 207.628 115.853  0.00  0.00    +0.077 A 
ATOM      6  C   UNL A   1      -9.096 208.326 115.921  0.00  0.00    +0.050 A 
ATOM      7  C   UNL A   1      -8.267 208.490 114.798  0.00  0.00    +0.085 A 
ATOM      8 CL   UNL A   1      -6.765 209.283 115.115  0.00  0.00    -0.080 Cl
ATOM      9  C   UNL A   1      -8.674 207.986 113.559  0.00  0.00    +0.142 A 
ATOM     10  C   UNL A   1      -9.887 207.276 113.504  0.00  0.00    +0.094 A 
ATOM     11  C   UNL A   1     -10.699 207.073 114.630  0.00  0.00    +0.145 A 
BRANCH   9  12
ATOM     12  O   UNL A   1      -8.078 208.045 112.331  0.00  0.00    -0.493 OA
ATOM     13  C   UNL A   1      -6.974 207.213 112.020  0.00  0.00    +0.277 C 
ENDBRANCH   9  12
BRANCH  11  14
ATOM     14  O   UNL A   1     -11.795 206.292 114.385  0.00  0.00    -0.493 OA
ATOM     15  C   UNL A   1     -11.670 205.287 113.386  0.00  0.00    +0.277 C 
ENDBRANCH  11  14
ENDBRANCH   3   5
BRANCH   1  16
ATOM     16  C   UNL A   1     -11.937 206.215 118.972  0.00  0.00    +0.173 C 
BRANCH  16  17
ATOM     17  S   UNL A   1     -13.524 205.363 118.743  0.00  0.00    -0.077 S 
BRANCH  17  20
ATOM     18  C   UNL A   1     -14.302 204.230 115.830  0.00  0.00    +0.153 C 
ATOM     19  N   UNL A   1     -14.542 205.596 116.214  0.00  0.00    -0.305 N 
ATOM     20  C   UNL A   1     -14.182 206.207 117.385  0.00  0.00    +0.192 A 
ATOM     21  N   UNL A   1     -14.442 207.486 117.324  0.00  0.00    -0.122 NA
ATOM     22  N   UNL A   1     -15.002 207.733 116.091  0.00  0.00    -0.128 NA
ATOM     23  C   UNL A   1     -15.101 206.589 115.428  0.00  0.00    +0.165 A 
BRANCH  23  24
ATOM     24  C   UNL A   1     -15.646 206.449 114.064  0.00  0.00    +0.019 A 
ATOM     25  C   UNL A   1     -16.860 205.778 113.878  0.00  0.00    +0.012 A 
ATOM     26  C   UNL A   1     -17.417 205.641 112.602  0.00  0.00    +0.001 A 
ATOM     27  C   UNL A   1     -16.764 206.171 111.494  0.00  0.00    +0.000 A 
ATOM     28  C   UNL A   1     -15.537 206.813 111.656  0.00  0.00    +0.001 A 
ATOM     29  C   UNL A   1     -14.971 206.929 112.929  0.00  0.00    +0.012 A 
ENDBRANCH  23  24
ENDBRANCH  17  20
ENDBRANCH  16  17
ENDBRANCH   1  16
TORSDOF 7
ENDMDL
MODEL 4
REMARK minimizedAffinity -7.44175768
REMARK minimizedRMSD -1
REMARK  Name = CS47
REMARK  10 active torsions:
REMARK  status: ('A' for Active; 'I' for Inactive)
REMARK    1  A    between atoms: C_1  and  N_2
REMARK    2  A    between atoms: C_3  and  S_4
REMARK    3  A    between atoms: S_4  and  C_5
REMARK    4  A    between atoms: C_5  and  C_6
REMARK    5  A    between atoms: N_8  and  C_9
REMARK    6  A    between atoms: C_13  and  O_14
REMARK    7  A    between atoms: O_14  and  C_15
REMARK    8  A    between atoms: C_17  and  O_18
REMARK    9  A    between atoms: O_18  and  C_19
REMARK   10  A    between atoms: C_22  and  C_23
REMARK                            x       y       z     vdW  Elec       q    Type
REMARK                         _______ _______ _______ _____ _____    ______ ____
ROOT
ATOM      1  C   UNL A   1     -14.866 203.971 116.004  0.00  0.00    +0.228 C 
ATOM      2  O   UNL A   1     -15.137 203.015 115.280  0.00  0.00    -0.275 OA
ATOM      3  N   UNL A   1     -14.481 205.225 115.539  0.00  0.00    -0.282 N 
ATOM      4  H   UNL A   1     -13.984 205.814 116.195  0.00  0.00    +0.155 HD
ENDROOT
BRANCH   3   5
ATOM      5  C   UNL A   1     -14.315 205.503 114.164  0.00  0.00    +0.077 A 
ATOM      6  C   UNL A   1     -15.433 205.901 113.417  0.00  0.00    +0.050 A 
ATOM      7  C   UNL A   1     -15.333 206.264 112.063  0.00  0.00    +0.085 A 
ATOM      8 CL   UNL A   1     -16.805 206.830 111.354  0.00  0.00    -0.080 Cl
ATOM      9  C   UNL A   1     -14.097 206.189 111.416  0.00  0.00    +0.142 A 
ATOM     10  C   UNL A   1     -12.979 205.802 112.177  0.00  0.00    +0.094 A 
ATOM     11  C   UNL A   1     -13.064 205.478 113.539  0.00  0.00    +0.145 A 
BRANCH   9  12
ATOM     12  O   UNL A   1     -13.749 206.447 110.120  0.00  0.00    -0.493 OA
ATOM     13  C   UNL A   1     -12.423 206.816 109.784  0.00  0.00    +0.277 C 
ENDBRANCH   9  12
BRANCH  11  14
ATOM     14  O   UNL A   1     -11.855 205.203 114.117  0.00  0.00    -0.493 OA
ATOM     15  C   UNL A   1     -11.066 206.311 114.535  0.00  0.00    +0.277 C 
ENDBRANCH  11  14
ENDBRANCH   3   5
BRANCH   1  16
ATOM     16  C   UNL A   1     -14.932 203.852 117.520  0.00  0.00    +0.173 C 
BRANCH  16  17
ATOM     17  S   UNL A   1     -15.137 202.114 118.004  0.00  0.00    -0.077 S 
BRANCH  17  20
ATOM     18  C   UNL A   1     -16.701 202.532 120.789  0.00  0.00    +0.153 C 
ATOM     19  N   UNL A   1     -17.390 202.309 119.545  0.00  0.00    -0.305 N 
ATOM     20  C   UNL A   1     -16.835 202.038 118.323  0.00  0.00    +0.192 A 
ATOM     21  N   UNL A   1     -17.771 201.756 117.456  0.00  0.00    -0.122 NA
ATOM     22  N   UNL A   1     -18.979 201.856 118.108  0.00  0.00    -0.128 NA
ATOM     23  C   UNL A   1     -18.759 202.226 119.362  0.00  0.00    +0.165 A 
BRANCH  23  24
ATOM     24  C   UNL A   1     -19.811 202.431 120.377  0.00  0.00    +0.019 A 
ATOM     25  C   UNL A   1     -20.334 201.322 121.053  0.00  0.00    +0.012 A 
ATOM     26  C   UNL A   1     -21.319 201.477 122.034  0.00  0.00    +0.001 A 
ATOM     27  C   UNL A   1     -21.797 202.745 122.349  0.00  0.00    +0.000 A 
ATOM     28  C   UNL A   1     -21.313 203.857 121.663  0.00  0.00    +0.001 A 
ATOM     29  C   UNL A   1     -20.344 203.698 120.667  0.00  0.00    +0.012 A 
ENDBRANCH  23  24
ENDBRANCH  17  20
ENDBRANCH  16  17
ENDBRANCH   1  16
TORSDOF 7
ENDMDL
MODEL 5
REMARK minimizedAffinity -7.31632328
REMARK minimizedRMSD -1
REMARK  Name = CS47
REMARK  10 active torsions:
REMARK  status: ('A' for Active; 'I' for Inactive)
REMARK    1  A    between atoms: C_1  and  N_2
REMARK    2  A    between atoms: C_3  and  S_4
REMARK    3  A    between atoms: S_4  and  C_5
REMARK    4  A    between atoms: C_5  and  C_6
REMARK    5  A    between atoms: N_8  and  C_9
REMARK    6  A    between atoms: C_13  and  O_14
REMARK    7  A    between atoms: O_14  and  C_15
REMARK    8  A    between atoms: C_17  and  O_18
REMARK    9  A    between atoms: O_18  and  C_19
REMARK   10  A    between atoms: C_22  and  C_23
REMARK                            x       y       z     vdW  Elec       q    Type
REMARK                         _______ _______ _______ _____ _____    ______ ____
ROOT
ATOM      1  C   UNL A   1     -13.453 205.225 118.896  0.00  0.00    +0.228 C 
ATOM      2  O   UNL A   1     -14.328 206.076 119.045  0.00  0.00    -0.275 OA
ATOM      3  N   UNL A   1     -13.698 203.863 118.753  0.00  0.00    -0.282 N 
ATOM      4  H   UNL A   1     -12.925 203.243 118.961  0.00  0.00    +0.155 HD
ENDROOT
BRANCH   3   5
ATOM      5  C   UNL A   1     -15.000 203.318 118.816  0.00  0.00    +0.077 A 
ATOM      6  C   UNL A   1     -15.527 202.975 120.070  0.00  0.00    +0.050 A 
ATOM      7  C   UNL A   1     -16.840 202.497 120.220  0.00  0.00    +0.085 A 
ATOM      8 CL   UNL A   1     -17.334 202.237 121.856  0.00  0.00    -0.080 Cl
ATOM      9  C   UNL A   1     -17.641 202.311 119.090  0.00  0.00    +0.142 A 
ATOM     10  C   UNL A   1     -17.109 202.671 117.839  0.00  0.00    +0.094 A 
ATOM     11  C   UNL A   1     -15.813 203.187 117.687  0.00  0.00    +0.145 A 
BRANCH   9  12
ATOM     12  O   UNL A   1     -18.917 201.834 118.968  0.00  0.00    -0.493 OA
ATOM     13  C   UNL A   1     -20.004 202.503 119.581  0.00  0.00    +0.277 C 
ENDBRANCH   9  12
BRANCH  11  14
ATOM     14  O   UNL A   1     -15.512 203.548 116.402  0.00  0.00    -0.493 OA
ATOM     15  C   UNL A   1     -15.716 204.909 116.042  0.00  0.00    +0.277 C 
ENDBRANCH  11  14
ENDBRANCH   3   5
BRANCH   1  16
ATOM     16  C   UNL A   1     -11.981 205.610 118.859  0.00  0.00    +0.173 C 
BRANCH  16  17
ATOM     17  S   UNL A   1     -11.719 206.971 117.685  0.00  0.00    -0.077 S 
BRANCH  17  20
ATOM     18  C   UNL A   1     -13.583 207.889 115.224  0.00  0.00    +0.153 C 
ATOM     19  N   UNL A   1     -12.754 206.715 115.165  0.00  0.00    -0.305 N 
ATOM     20  C   UNL A   1     -11.990 206.184 116.170  0.00  0.00    +0.192 A 
ATOM     21  N   UNL A   1     -11.485 205.039 115.794  0.00  0.00    -0.122 NA
ATOM     22  N   UNL A   1     -11.908 204.805 114.505  0.00  0.00    -0.128 NA
ATOM     23  C   UNL A   1     -12.646 205.832 114.104  0.00  0.00    +0.165 A 
BRANCH  23  24
ATOM     24  C   UNL A   1     -13.285 205.943 112.779  0.00  0.00    +0.019 A 
ATOM     25  C   UNL A   1     -12.496 206.244 111.663  0.00  0.00    +0.012 A 
ATOM     26  C   UNL A   1     -13.063 206.341 110.388  0.00  0.00    +0.001 A 
ATOM     27  C   UNL A   1     -14.429 206.141 110.214  0.00  0.00    +0.000 A 
ATOM     28  C   UNL A   1     -15.235 205.875 111.318  0.00  0.00    +0.001 A 
ATOM     29  C   UNL A   1     -14.670 205.801 112.595  0.00  0.00    +0.012 A 
ENDBRANCH  23  24
ENDBRANCH  17  20
ENDBRANCH  16  17
ENDBRANCH   1  16
TORSDOF 7
ENDMDL
MODEL 6
REMARK minimizedAffinity -7.21186829
REMARK minimizedRMSD -1
REMARK  Name = CS47
REMARK  10 active torsions:
REMARK  status: ('A' for Active; 'I' for Inactive)
REMARK    1  A    between atoms: C_1  and  N_2
REMARK    2  A    between atoms: C_3  and  S_4
REMARK    3  A    between atoms: S_4  and  C_5
REMARK    4  A    between atoms: C_5  and  C_6
REMARK    5  A    between atoms: N_8  and  C_9
REMARK    6  A    between atoms: C_13  and  O_14
REMARK    7  A    between atoms: O_14  and  C_15
REMARK    8  A    between atoms: C_17  and  O_18
REMARK    9  A    between atoms: O_18  and  C_19
REMARK   10  A    between atoms: C_22  and  C_23
REMARK                            x       y       z     vdW  Elec       q    Type
REMARK                         _______ _______ _______ _____ _____    ______ ____
ROOT
ATOM      1  C   UNL A   1     -15.521 202.235 118.016  0.00  0.00    +0.228 C 
ATOM      2  O   UNL A   1     -15.627 201.010 118.051  0.00  0.00    -0.275 OA
ATOM      3  N   UNL A   1     -16.346 203.116 118.708  0.00  0.00    -0.282 N 
ATOM      4  H   UNL A   1     -16.379 204.066 118.362  0.00  0.00    +0.155 HD
ENDROOT
BRANCH   3   5
ATOM      5  C   UNL A   1     -17.435 202.674 119.492  0.00  0.00    +0.077 A 
ATOM      6  C   UNL A   1     -17.370 202.828 120.884  0.00  0.00    +0.050 A 
ATOM      7  C   UNL A   1     -18.443 202.480 121.723  0.00  0.00    +0.085 A 
ATOM      8 CL   UNL A   1     -18.205 202.850 123.395  0.00  0.00    -0.080 Cl
ATOM      9  C   UNL A   1     -19.599 201.920 121.171  0.00  0.00    +0.142 A 
ATOM     10  C   UNL A   1     -19.660 201.782 119.773  0.00  0.00    +0.094 A 
ATOM     11  C   UNL A   1     -18.609 202.166 118.926  0.00  0.00    +0.145 A 
BRANCH   9  12
ATOM     12  O   UNL A   1     -20.746 201.472 121.764  0.00  0.00    -0.493 OA
ATOM     13  C   UNL A   1     -21.746 202.381 122.189  0.00  0.00    +0.277 C 
ENDBRANCH   9  12
BRANCH  11  14
ATOM     14  O   UNL A   1     -18.894 202.025 117.595  0.00  0.00    -0.493 OA
ATOM     15  C   UNL A   1     -20.130 202.556 117.133  0.00  0.00    +0.277 C 
ENDBRANCH  11  14
ENDBRANCH   3   5
BRANCH   1  16
ATOM     16  C   UNL A   1     -14.440 202.905 117.179  0.00  0.00    +0.173 C 
BRANCH  16  17
ATOM     17  S   UNL A   1     -14.987 204.556 116.656  0.00  0.00    -0.077 S 
BRANCH  17  20
ATOM     18  C   UNL A   1     -13.280 206.644 114.895  0.00  0.00    +0.153 C 
ATOM     19  N   UNL A   1     -13.827 205.435 114.338  0.00  0.00    -0.305 N 
ATOM     20  C   UNL A   1     -14.633 204.521 114.964  0.00  0.00    +0.192 A 
ATOM     21  N   UNL A   1     -15.047 203.626 114.107  0.00  0.00    -0.122 NA
ATOM     22  N   UNL A   1     -14.495 203.940 112.885  0.00  0.00    -0.128 NA
ATOM     23  C   UNL A   1     -13.726 205.011 113.025  0.00  0.00    +0.165 A 
BRANCH  23  24
ATOM     24  C   UNL A   1     -12.971 205.654 111.933  0.00  0.00    +0.019 A 
ATOM     25  C   UNL A   1     -13.658 206.108 110.801  0.00  0.00    +0.012 A 
ATOM     26  C   UNL A   1     -12.979 206.738 109.753  0.00  0.00    +0.001 A 
ATOM     27  C   UNL A   1     -11.601 206.920 109.823  0.00  0.00    +0.000 A 
ATOM     28  C   UNL A   1     -10.896 206.443 110.926  0.00  0.00    +0.001 A 
ATOM     29  C   UNL A   1     -11.573 205.794 111.962  0.00  0.00    +0.012 A 
ENDBRANCH  23  24
ENDBRANCH  17  20
ENDBRANCH  16  17
ENDBRANCH   1  16
TORSDOF 7
ENDMDL
MODEL 7
REMARK minimizedAffinity -7.12806606
REMARK minimizedRMSD -1
REMARK  Name = CS47
REMARK  10 active torsions:
REMARK  status: ('A' for Active; 'I' for Inactive)
REMARK    1  A    between atoms: C_1  and  N_2
REMARK    2  A    between atoms: C_3  and  S_4
REMARK    3  A    between atoms: S_4  and  C_5
REMARK    4  A    between atoms: C_5  and  C_6
REMARK    5  A    between atoms: N_8  and  C_9
REMARK    6  A    between atoms: C_13  and  O_14
REMARK    7  A    between atoms: O_14  and  C_15
REMARK    8  A    between atoms: C_17  and  O_18
REMARK    9  A    between atoms: O_18  and  C_19
REMARK   10  A    between atoms: C_22  and  C_23
REMARK                            x       y       z     vdW  Elec       q    Type
REMARK                         _______ _______ _______ _____ _____    ______ ____
ROOT
ATOM      1  C   UNL A   1     -14.363 204.431 116.095  0.00  0.00    +0.228 C 
ATOM      2  O   UNL A   1     -13.319 203.843 116.370  0.00  0.00    -0.275 OA
ATOM      3  N   UNL A   1     -14.486 205.387 115.091  0.00  0.00    -0.282 N 
ATOM      4  H   UNL A   1     -15.273 206.019 115.167  0.00  0.00    +0.155 HD
ENDROOT
BRANCH   3   5
ATOM      5  C   UNL A   1     -13.386 205.812 114.313  0.00  0.00    +0.077 A 
ATOM      6  C   UNL A   1     -12.474 206.718 114.873  0.00  0.00    +0.050 A 
ATOM      7  C   UNL A   1     -11.317 207.129 114.189  0.00  0.00    +0.085 A 
ATOM      8 CL   UNL A   1     -10.269 208.163 115.094  0.00  0.00    -0.080 Cl
ATOM      9  C   UNL A   1     -11.079 206.664 112.893  0.00  0.00    +0.142 A 
ATOM     10  C   UNL A   1     -11.992 205.744 112.345  0.00  0.00    +0.094 A 
ATOM     11  C   UNL A   1     -13.126 205.298 113.039  0.00  0.00    +0.145 A 
BRANCH   9  12
ATOM     12  O   UNL A   1     -10.065 206.937 112.018  0.00  0.00    -0.493 OA
ATOM     13  C   UNL A   1     -10.250 206.786 110.621  0.00  0.00    +0.277 C 
ENDBRANCH   9  12
BRANCH  11  14
ATOM     14  O   UNL A   1     -13.844 204.347 112.366  0.00  0.00    -0.493 OA
ATOM     15  C   UNL A   1     -14.896 204.801 111.523  0.00  0.00    +0.277 C 
ENDBRANCH  11  14
ENDBRANCH   3   5
BRANCH   1  16
ATOM     16  C   UNL A   1     -15.648 204.151 116.862  0.00  0.00    +0.173 C 
BRANCH  16  17
ATOM     17  S   UNL A   1     -15.646 202.446 117.486  0.00  0.00    -0.077 S 
BRANCH  17  20
ATOM     18  C   UNL A   1     -16.871 202.736 120.451  0.00  0.00    +0.153 C 
ATOM     19  N   UNL A   1     -17.695 202.487 119.299  0.00  0.00    -0.305 N 
ATOM     20  C   UNL A   1     -17.283 202.264 118.012  0.00  0.00    +0.192 A 
ATOM     21  N   UNL A   1     -18.302 201.938 117.264  0.00  0.00    -0.122 NA
ATOM     22  N   UNL A   1     -19.423 201.957 118.063  0.00  0.00    -0.128 NA
ATOM     23  C   UNL A   1     -19.070 202.324 119.287  0.00  0.00    +0.165 A 
BRANCH  23  24
ATOM     24  C   UNL A   1     -19.996 202.453 120.428  0.00  0.00    +0.019 A 
ATOM     25  C   UNL A   1     -20.412 203.728 120.830  0.00  0.00    +0.012 A 
ATOM     26  C   UNL A   1     -21.303 203.890 121.896  0.00  0.00    +0.001 A 
ATOM     27  C   UNL A   1     -21.787 202.777 122.577  0.00  0.00    +0.000 A 
ATOM     28  C   UNL A   1     -21.357 201.502 122.213  0.00  0.00    +0.001 A 
ATOM     29  C   UNL A   1     -20.449 201.344 121.162  0.00  0.00    +0.012 A 
ENDBRANCH  23  24
ENDBRANCH  17  20
ENDBRANCH  16  17
ENDBRANCH   1  16
TORSDOF 7
ENDMDL
MODEL 8
REMARK minimizedAffinity -7.05287743
REMARK minimizedRMSD -1
REMARK  Name = CS47
REMARK  10 active torsions:
REMARK  status: ('A' for Active; 'I' for Inactive)
REMARK    1  A    between atoms: C_1  and  N_2
REMARK    2  A    between atoms: C_3  and  S_4
REMARK    3  A    between atoms: S_4  and  C_5
REMARK    4  A    between atoms: C_5  and  C_6
REMARK    5  A    between atoms: N_8  and  C_9
REMARK    6  A    between atoms: C_13  and  O_14
REMARK    7  A    between atoms: O_14  and  C_15
REMARK    8  A    between atoms: C_17  and  O_18
REMARK    9  A    between atoms: O_18  and  C_19
REMARK   10  A    between atoms: C_22  and  C_23
REMARK                            x       y       z     vdW  Elec       q    Type
REMARK                         _______ _______ _______ _____ _____    ______ ____
ROOT
ATOM      1  C   UNL A   1     -15.217 204.968 115.777  0.00  0.00    +0.228 C 
ATOM      2  O   UNL A   1     -15.524 206.158 115.722  0.00  0.00    -0.275 OA
ATOM      3  N   UNL A   1     -14.635 204.257 114.732  0.00  0.00    -0.282 N 
ATOM      4  H   UNL A   1     -14.725 203.250 114.770  0.00  0.00    +0.155 HD
ENDROOT
BRANCH   3   5
ATOM      5  C   UNL A   1     -14.384 204.839 113.469  0.00  0.00    +0.077 A 
ATOM      6  C   UNL A   1     -13.067 205.189 113.138  0.00  0.00    +0.050 A 
ATOM      7  C   UNL A   1     -12.728 205.704 111.875  0.00  0.00    +0.085 A 
ATOM      8 CL   UNL A   1     -11.037 205.967 111.629  0.00  0.00    -0.080 Cl
ATOM      9  C   UNL A   1     -13.731 205.921 110.926  0.00  0.00    +0.142 A 
ATOM     10  C   UNL A   1     -15.046 205.555 111.262  0.00  0.00    +0.094 A 
ATOM     11  C   UNL A   1     -15.384 205.002 112.506  0.00  0.00    +0.145 A 
BRANCH   9  12
ATOM     12  O   UNL A   1     -13.667 206.437 109.661  0.00  0.00    -0.493 OA
ATOM     13  C   UNL A   1     -12.874 207.577 109.381  0.00  0.00    +0.277 C 
ENDBRANCH   9  12
BRANCH  11  14
ATOM     14  O   UNL A   1     -16.700 204.641 112.610  0.00  0.00    -0.493 OA
ATOM     15  C   UNL A   1     -17.663 205.688 112.625  0.00  0.00    +0.277 C 
ENDBRANCH  11  14
ENDBRANCH   3   5
BRANCH   1  16
ATOM     16  C   UNL A   1     -15.462 204.152 117.038  0.00  0.00    +0.173 C 
BRANCH  16  17
ATOM     17  S   UNL A   1     -13.882 203.609 117.750  0.00  0.00    -0.077 S 
BRANCH  17  20
ATOM     18  C   UNL A   1     -11.181 204.245 116.113  0.00  0.00    +0.153 C 
ATOM     19  N   UNL A   1     -11.856 205.242 116.901  0.00  0.00    -0.305 N 
ATOM     20  C   UNL A   1     -12.955 205.069 117.699  0.00  0.00    +0.192 A 
ATOM     21  N   UNL A   1     -13.203 206.164 118.367  0.00  0.00    -0.122 NA
ATOM     22  N   UNL A   1     -12.258 207.094 117.997  0.00  0.00    -0.128 NA
ATOM     23  C   UNL A   1     -11.463 206.556 117.083  0.00  0.00    +0.165 A 
BRANCH  23  24
ATOM     24  C   UNL A   1     -10.322 207.244 116.449  0.00  0.00    +0.019 A 
ATOM     25  C   UNL A   1     -10.522 207.937 115.249  0.00  0.00    +0.012 A 
ATOM     26  C   UNL A   1      -9.469 208.616 114.627  0.00  0.00    +0.001 A 
ATOM     27  C   UNL A   1      -8.200 208.608 115.197  0.00  0.00    +0.000 A 
ATOM     28  C   UNL A   1      -7.974 207.895 116.373  0.00  0.00    +0.001 A 
ATOM     29  C   UNL A   1      -9.022 207.199 116.981  0.00  0.00    +0.012 A 
ENDBRANCH  23  24
ENDBRANCH  17  20
ENDBRANCH  16  17
ENDBRANCH   1  16
TORSDOF 7
ENDMDL
MODEL 9
REMARK minimizedAffinity -6.68102312
REMARK minimizedRMSD -1
REMARK  Name = CS47
REMARK  10 active torsions:
REMARK  status: ('A' for Active; 'I' for Inactive)
REMARK    1  A    between atoms: C_1  and  N_2
REMARK    2  A    between atoms: C_3  and  S_4
REMARK    3  A    between atoms: S_4  and  C_5
REMARK    4  A    between atoms: C_5  and  C_6
REMARK    5  A    between atoms: N_8  and  C_9
REMARK    6  A    between atoms: C_13  and  O_14
REMARK    7  A    between atoms: O_14  and  C_15
REMARK    8  A    between atoms: C_17  and  O_18
REMARK    9  A    between atoms: O_18  and  C_19
REMARK   10  A    between atoms: C_22  and  C_23
REMARK                            x       y       z     vdW  Elec       q    Type
REMARK                         _______ _______ _______ _____ _____    ______ ____
ROOT
ATOM      1  C   UNL A   1     -13.438 204.662 116.389  0.00  0.00    +0.228 C 
ATOM      2  O   UNL A   1     -12.577 203.786 116.469  0.00  0.00    -0.275 OA
ATOM      3  N   UNL A   1     -13.320 205.812 115.615  0.00  0.00    -0.282 N 
ATOM      4  H   UNL A   1     -13.917 206.588 115.870  0.00  0.00    +0.155 HD
ENDROOT
BRANCH   3   5
ATOM      5  C   UNL A   1     -12.153 206.108 114.874  0.00  0.00    +0.077 A 
ATOM      6  C   UNL A   1     -12.218 206.073 113.473  0.00  0.00    +0.050 A 
ATOM      7  C   UNL A   1     -11.121 206.426 112.668  0.00  0.00    +0.085 A 
ATOM      8 CL   UNL A   1     -11.439 206.424 110.969  0.00  0.00    -0.080 Cl
ATOM      9  C   UNL A   1      -9.910 206.781 113.268  0.00  0.00    +0.142 A 
ATOM     10  C   UNL A   1      -9.859 206.826 114.673  0.00  0.00    +0.094 A 
ATOM     11  C   UNL A   1     -10.962 206.515 115.482  0.00  0.00    +0.145 A 
BRANCH   9  12
ATOM     12  O   UNL A   1      -8.707 207.124 112.716  0.00  0.00    -0.493 OA
ATOM     13  C   UNL A   1      -8.134 208.397 112.959  0.00  0.00    +0.277 C 
ENDBRANCH   9  12
BRANCH  11  14
ATOM     14  O   UNL A   1     -10.733 206.695 116.818  0.00  0.00    -0.493 OA
ATOM     15  C   UNL A   1     -10.937 208.000 117.345  0.00  0.00    +0.277 C 
ENDBRANCH  11  14
ENDBRANCH   3   5
BRANCH   1  16
ATOM     16  C   UNL A   1     -14.745 204.551 117.161  0.00  0.00    +0.173 C 
BRANCH  16  17
ATOM     17  S   UNL A   1     -14.780 203.007 118.115  0.00  0.00    -0.077 S 
BRANCH  17  20
ATOM     18  C   UNL A   1     -16.509 202.892 120.831  0.00  0.00    +0.153 C 
ATOM     19  N   UNL A   1     -17.115 202.804 119.529  0.00  0.00    -0.305 N 
ATOM     20  C   UNL A   1     -16.480 202.758 118.317  0.00  0.00    +0.192 A 
ATOM     21  N   UNL A   1     -17.346 202.540 117.364  0.00  0.00    -0.122 NA
ATOM     22  N   UNL A   1     -18.589 202.452 117.949  0.00  0.00    -0.128 NA
ATOM     23  C   UNL A   1     -18.462 202.648 119.254  0.00  0.00    +0.165 A 
BRANCH  23  24
ATOM     24  C   UNL A   1     -19.575 202.622 120.222  0.00  0.00    +0.019 A 
ATOM     25  C   UNL A   1     -19.961 201.401 120.788  0.00  0.00    +0.012 A 
ATOM     26  C   UNL A   1     -21.000 201.338 121.722  0.00  0.00    +0.001 A 
ATOM     27  C   UNL A   1     -21.670 202.498 122.100  0.00  0.00    +0.000 A 
ATOM     28  C   UNL A   1     -21.323 203.717 121.522  0.00  0.00    +0.001 A 
ATOM     29  C   UNL A   1     -20.299 203.774 120.572  0.00  0.00    +0.012 A 
ENDBRANCH  23  24
ENDBRANCH  17  20
ENDBRANCH  16  17
ENDBRANCH   1  16
TORSDOF 7
ENDMDL
