MODEL 1
REMARK minimizedAffinity -6.99700308
REMARK minimizedRMSD -1
REMARK  Name = CS53
REMARK  7 active torsions:
REMARK  status: ('A' for Active; 'I' for Inactive)
REMARK    1  A    between atoms: N_1  and  C_2
REMARK    2  A    between atoms: C_6  and  S_7
REMARK    3  A    between atoms: S_7  and  C_8
REMARK    4  A    between atoms: C_8  and  C_9
REMARK    5  A    between atoms: N_11  and  C_12
REMARK    6  A    between atoms: C_15  and  O_18
REMARK    7  A    between atoms: O_18  and  C_19
REMARK                            x       y       z     vdW  Elec       q    Type
REMARK                         _______ _______ _______ _____ _____    ______ ____
ROOT
ATOM      1  C   UNL A   1     -13.481 205.324 114.335  0.00  0.00    +0.228 C 
ATOM      2  O   UNL A   1     -13.670 206.428 114.843  0.00  0.00    -0.275 OA
ATOM      3  N   UNL A   1     -12.380 204.948 113.582  0.00  0.00    -0.285 N 
ATOM      4  H   UNL A   1     -12.470 204.097 113.029  0.00  0.00    +0.155 HD
ENDROOT
BRANCH   3   5
ATOM      5  C   UNL A   1     -11.263 205.759 113.289  0.00  0.00    +0.034 A 
ATOM      6  C   UNL A   1     -11.164 206.530 112.134  0.00  0.00    +0.027 A 
ATOM      7  C   UNL A   1     -10.006 207.263 111.856  0.00  0.00    +0.047 A 
ATOM      8  C   UNL A   1      -8.930 207.237 112.738  0.00  0.00    +0.120 A 
ATOM      9  C   UNL A   1      -9.041 206.505 113.922  0.00  0.00    +0.047 A 
ATOM     10  C   UNL A   1     -10.206 205.776 114.204  0.00  0.00    +0.027 A 
BRANCH   8  11
ATOM     11  O   UNL A   1      -7.733 207.872 112.554  0.00  0.00    -0.495 OA
ATOM     12  C   UNL A   1      -6.739 207.151 111.830  0.00  0.00    +0.277 C 
ENDBRANCH   8  11
ENDBRANCH   3   5
BRANCH   1  13
ATOM     13  C   UNL A   1     -14.536 204.237 114.464  0.00  0.00    +0.173 C 
BRANCH  13  14
ATOM     14  S   UNL A   1     -15.114 203.719 112.819  0.00  0.00    -0.075 S 
BRANCH  14  20
ATOM     15  N   UNL A   1     -15.950 205.999 111.564  0.00  0.00    -0.223 N 
ATOM     16  C   UNL A   1     -14.787 206.238 110.757  0.00  0.00    +0.177 C 
ATOM     17  N   UNL A   1     -17.024 206.807 111.486  0.00  0.00    -0.043 NA
ATOM     18  N   UNL A   1     -17.916 206.288 112.320  0.00  0.00    -0.022 NA
ATOM     19  N   UNL A   1     -17.424 205.155 112.923  0.00  0.00    -0.102 NA
ATOM     20  C   UNL A   1     -16.211 204.994 112.447  0.00  0.00    +0.209 A 
ENDBRANCH  14  20
ENDBRANCH  13  14
ENDBRANCH   1  13
TORSDOF 5
ENDMDL
MODEL 2
REMARK minimizedAffinity -6.54951429
REMARK minimizedRMSD -1
REMARK  Name = CS53
REMARK  7 active torsions:
REMARK  status: ('A' for Active; 'I' for Inactive)
REMARK    1  A    between atoms: N_1  and  C_2
REMARK    2  A    between atoms: C_6  and  S_7
REMARK    3  A    between atoms: S_7  and  C_8
REMARK    4  A    between atoms: C_8  and  C_9
REMARK    5  A    between atoms: N_11  and  C_12
REMARK    6  A    between atoms: C_15  and  O_18
REMARK    7  A    between atoms: O_18  and  C_19
REMARK                            x       y       z     vdW  Elec       q    Type
REMARK                         _______ _______ _______ _____ _____    ______ ____
ROOT
ATOM      1  C   UNL A   1     -15.141 203.947 116.083  0.00  0.00    +0.228 C 
ATOM      2  O   UNL A   1     -15.444 205.107 116.358  0.00  0.00    -0.275 OA
ATOM      3  N   UNL A   1     -14.701 203.487 114.852  0.00  0.00    -0.285 N 
ATOM      4  H   UNL A   1     -14.721 202.480 114.704  0.00  0.00    +0.155 HD
ENDROOT
BRANCH   3   5
ATOM      5  C   UNL A   1     -14.493 204.276 113.701  0.00  0.00    +0.034 A 
ATOM      6  C   UNL A   1     -15.484 204.515 112.752  0.00  0.00    +0.027 A 
ATOM      7  C   UNL A   1     -15.209 205.247 111.593  0.00  0.00    +0.047 A 
ATOM      8  C   UNL A   1     -13.932 205.755 111.370  0.00  0.00    +0.120 A 
ATOM      9  C   UNL A   1     -12.947 205.561 112.340  0.00  0.00    +0.047 A 
ATOM     10  C   UNL A   1     -13.225 204.834 113.507  0.00  0.00    +0.027 A 
BRANCH   8  11
ATOM     11  O   UNL A   1     -13.531 206.443 110.258  0.00  0.00    -0.495 OA
ATOM     12  C   UNL A   1     -12.136 206.715 110.152  0.00  0.00    +0.277 C 
ENDBRANCH   8  11
ENDBRANCH   3   5
BRANCH   1  13
ATOM     13  C   UNL A   1     -15.286 202.855 117.131  0.00  0.00    +0.173 C 
BRANCH  13  14
ATOM     14  S   UNL A   1     -16.997 202.788 117.741  0.00  0.00    -0.075 S 
BRANCH  14  20
ATOM     15  N   UNL A   1     -17.587 200.888 119.617  0.00  0.00    -0.223 N 
ATOM     16  C   UNL A   1     -18.239 201.732 120.579  0.00  0.00    +0.177 C 
ATOM     17  N   UNL A   1     -17.479 199.563 119.822  0.00  0.00    -0.043 NA
ATOM     18  N   UNL A   1     -16.869 199.089 118.742  0.00  0.00    -0.022 NA
ATOM     19  N   UNL A   1     -16.592 200.099 117.851  0.00  0.00    -0.102 NA
ATOM     20  C   UNL A   1     -17.039 201.201 118.409  0.00  0.00    +0.209 A 
ENDBRANCH  14  20
ENDBRANCH  13  14
ENDBRANCH   1  13
TORSDOF 5
ENDMDL
MODEL 3
REMARK minimizedAffinity -6.01430416
REMARK minimizedRMSD -1
REMARK  Name = CS53
REMARK  7 active torsions:
REMARK  status: ('A' for Active; 'I' for Inactive)
REMARK    1  A    between atoms: N_1  and  C_2
REMARK    2  A    between atoms: C_6  and  S_7
REMARK    3  A    between atoms: S_7  and  C_8
REMARK    4  A    between atoms: C_8  and  C_9
REMARK    5  A    between atoms: N_11  and  C_12
REMARK    6  A    between atoms: C_15  and  O_18
REMARK    7  A    between atoms: O_18  and  C_19
REMARK                            x       y       z     vdW  Elec       q    Type
REMARK                         _______ _______ _______ _____ _____    ______ ____
ROOT
ATOM      1  C   UNL A   1     -14.949 204.643 115.588  0.00  0.00    +0.228 C 
ATOM      2  O   UNL A   1     -15.539 205.665 115.935  0.00  0.00    -0.275 OA
ATOM      3  N   UNL A   1     -14.896 203.451 116.292  0.00  0.00    -0.285 N 
ATOM      4  H   UNL A   1     -14.182 202.782 116.008  0.00  0.00    +0.155 HD
ENDROOT
BRANCH   3   5
ATOM      5  C   UNL A   1     -15.535 203.188 117.522  0.00  0.00    +0.034 A 
ATOM      6  C   UNL A   1     -16.840 202.712 117.616  0.00  0.00    +0.027 A 
ATOM      7  C   UNL A   1     -17.453 202.533 118.859  0.00  0.00    +0.047 A 
ATOM      8  C   UNL A   1     -16.761 202.825 120.031  0.00  0.00    +0.120 A 
ATOM      9  C   UNL A   1     -15.436 203.256 119.946  0.00  0.00    +0.047 A 
ATOM     10  C   UNL A   1     -14.818 203.428 118.699  0.00  0.00    +0.027 A 
BRANCH   8  11
ATOM     11  O   UNL A   1     -17.267 202.734 121.299  0.00  0.00    -0.495 OA
ATOM     12  C   UNL A   1     -18.650 202.406 121.406  0.00  0.00    +0.277 C 
ENDBRANCH   8  11
ENDBRANCH   3   5
BRANCH   1  13
ATOM     13  C   UNL A   1     -14.142 204.632 114.299  0.00  0.00    +0.173 C 
BRANCH  13  14
ATOM     14  S   UNL A   1     -15.066 203.784 112.983  0.00  0.00    -0.075 S 
BRANCH  14  20
ATOM     15  N   UNL A   1     -15.973 205.957 111.594  0.00  0.00    -0.223 N 
ATOM     16  C   UNL A   1     -14.826 206.170 110.756  0.00  0.00    +0.177 C 
ATOM     17  N   UNL A   1     -17.066 206.734 111.479  0.00  0.00    -0.043 NA
ATOM     18  N   UNL A   1     -17.935 206.249 112.358  0.00  0.00    -0.022 NA
ATOM     19  N   UNL A   1     -17.409 205.170 113.026  0.00  0.00    -0.102 NA
ATOM     20  C   UNL A   1     -16.198 205.006 112.545  0.00  0.00    +0.209 A 
ENDBRANCH  14  20
ENDBRANCH  13  14
ENDBRANCH   1  13
TORSDOF 5
ENDMDL
MODEL 4
REMARK minimizedAffinity -5.9796505
REMARK minimizedRMSD -1
REMARK  Name = CS53
REMARK  7 active torsions:
REMARK  status: ('A' for Active; 'I' for Inactive)
REMARK    1  A    between atoms: N_1  and  C_2
REMARK    2  A    between atoms: C_6  and  S_7
REMARK    3  A    between atoms: S_7  and  C_8
REMARK    4  A    between atoms: C_8  and  C_9
REMARK    5  A    between atoms: N_11  and  C_12
REMARK    6  A    between atoms: C_15  and  O_18
REMARK    7  A    between atoms: O_18  and  C_19
REMARK                            x       y       z     vdW  Elec       q    Type
REMARK                         _______ _______ _______ _____ _____    ______ ____
ROOT
ATOM      1  C   UNL A   1     -11.825 205.992 112.293  0.00  0.00    +0.228 C 
ATOM      2  O   UNL A   1     -11.498 205.093 113.067  0.00  0.00    -0.275 OA
ATOM      3  N   UNL A   1     -11.061 207.096 111.953  0.00  0.00    -0.285 N 
ATOM      4  H   UNL A   1     -11.546 207.869 111.500  0.00  0.00    +0.155 HD
ENDROOT
BRANCH   3   5
ATOM      5  C   UNL A   1      -9.756 207.372 112.412  0.00  0.00    +0.034 A 
ATOM      6  C   UNL A   1      -8.608 206.954 111.743  0.00  0.00    +0.027 A 
ATOM      7  C   UNL A   1      -7.338 207.193 112.276  0.00  0.00    +0.047 A 
ATOM      8  C   UNL A   1      -7.200 207.860 113.489  0.00  0.00    +0.120 A 
ATOM      9  C   UNL A   1      -8.343 208.324 114.142  0.00  0.00    +0.047 A 
ATOM     10  C   UNL A   1      -9.617 208.092 113.603  0.00  0.00    +0.027 A 
BRANCH   8  11
ATOM     11  O   UNL A   1      -6.018 208.110 114.131  0.00  0.00    -0.495 OA
ATOM     12  C   UNL A   1      -4.829 207.791 113.413  0.00  0.00    +0.277 C 
ENDBRANCH   8  11
ENDBRANCH   3   5
BRANCH   1  13
ATOM     13  C   UNL A   1     -13.204 205.978 111.651  0.00  0.00    +0.173 C 
BRANCH  13  14
ATOM     14  S   UNL A   1     -14.027 204.386 111.959  0.00  0.00    -0.075 S 
BRANCH  14  20
ATOM     15  N   UNL A   1     -15.508 205.185 114.114  0.00  0.00    -0.223 N 
ATOM     16  C   UNL A   1     -14.479 205.126 115.114  0.00  0.00    +0.177 C 
ATOM     17  N   UNL A   1     -16.751 205.597 114.424  0.00  0.00    -0.043 NA
ATOM     18  N   UNL A   1     -17.426 205.567 113.282  0.00  0.00    -0.022 NA
ATOM     19  N   UNL A   1     -16.625 205.146 112.248  0.00  0.00    -0.102 NA
ATOM     20  C   UNL A   1     -15.447 204.911 112.780  0.00  0.00    +0.209 A 
ENDBRANCH  14  20
ENDBRANCH  13  14
ENDBRANCH   1  13
TORSDOF 5
ENDMDL
MODEL 5
REMARK minimizedAffinity -5.91214466
REMARK minimizedRMSD -1
REMARK  Name = CS53
REMARK  7 active torsions:
REMARK  status: ('A' for Active; 'I' for Inactive)
REMARK    1  A    between atoms: N_1  and  C_2
REMARK    2  A    between atoms: C_6  and  S_7
REMARK    3  A    between atoms: S_7  and  C_8
REMARK    4  A    between atoms: C_8  and  C_9
REMARK    5  A    between atoms: N_11  and  C_12
REMARK    6  A    between atoms: C_15  and  O_18
REMARK    7  A    between atoms: O_18  and  C_19
REMARK                            x       y       z     vdW  Elec       q    Type
REMARK                         _______ _______ _______ _____ _____    ______ ____
ROOT
ATOM      1  C   UNL A   1     -14.533 204.229 115.899  0.00  0.00    +0.228 C 
ATOM      2  O   UNL A   1     -15.021 203.384 115.150  0.00  0.00    -0.275 OA
ATOM      3  N   UNL A   1     -13.647 205.231 115.536  0.00  0.00    -0.285 N 
ATOM      4  H   UNL A   1     -13.146 205.696 116.290  0.00  0.00    +0.155 HD
ENDROOT
BRANCH   3   5
ATOM      5  C   UNL A   1     -13.170 205.479 114.232  0.00  0.00    +0.034 A 
ATOM      6  C   UNL A   1     -11.832 205.341 113.871  0.00  0.00    +0.027 A 
ATOM      7  C   UNL A   1     -11.397 205.665 112.582  0.00  0.00    +0.047 A 
ATOM      8  C   UNL A   1     -12.302 206.130 111.632  0.00  0.00    +0.120 A 
ATOM      9  C   UNL A   1     -13.653 206.225 111.973  0.00  0.00    +0.047 A 
ATOM     10  C   UNL A   1     -14.090 205.892 113.263  0.00  0.00    +0.027 A 
BRANCH   8  11
ATOM     11  O   UNL A   1     -11.990 206.522 110.359  0.00  0.00    -0.495 OA
ATOM     12  C   UNL A   1     -10.603 206.570 110.035  0.00  0.00    +0.277 C 
ENDBRANCH   8  11
ENDBRANCH   3   5
BRANCH   1  13
ATOM     13  C   UNL A   1     -14.850 204.200 117.386  0.00  0.00    +0.173 C 
BRANCH  13  14
ATOM     14  S   UNL A   1     -14.976 202.483 117.971  0.00  0.00    -0.075 S 
BRANCH  14  20
ATOM     15  N   UNL A   1     -17.232 200.945 117.820  0.00  0.00    -0.223 N 
ATOM     16  C   UNL A   1     -16.658 199.685 118.201  0.00  0.00    +0.177 C 
ATOM     17  N   UNL A   1     -18.548 201.055 117.563  0.00  0.00    -0.043 NA
ATOM     18  N   UNL A   1     -18.745 202.338 117.284  0.00  0.00    -0.022 NA
ATOM     19  N   UNL A   1     -17.569 203.046 117.367  0.00  0.00    -0.102 NA
ATOM     20  C   UNL A   1     -16.647 202.170 117.695  0.00  0.00    +0.209 A 
ENDBRANCH  14  20
ENDBRANCH  13  14
ENDBRANCH   1  13
TORSDOF 5
ENDMDL
MODEL 6
REMARK minimizedAffinity -5.87395287
REMARK minimizedRMSD -1
REMARK  Name = CS53
REMARK  7 active torsions:
REMARK  status: ('A' for Active; 'I' for Inactive)
REMARK    1  A    between atoms: N_1  and  C_2
REMARK    2  A    between atoms: C_6  and  S_7
REMARK    3  A    between atoms: S_7  and  C_8
REMARK    4  A    between atoms: C_8  and  C_9
REMARK    5  A    between atoms: N_11  and  C_12
REMARK    6  A    between atoms: C_15  and  O_18
REMARK    7  A    between atoms: O_18  and  C_19
REMARK                            x       y       z     vdW  Elec       q    Type
REMARK                         _______ _______ _______ _____ _____    ______ ____
ROOT
ATOM      1  C   UNL A   1     -10.817 206.654 114.581  0.00  0.00    +0.228 C 
ATOM      2  O   UNL A   1     -10.399 205.903 115.461  0.00  0.00    -0.275 OA
ATOM      3  N   UNL A   1     -10.089 207.639 113.933  0.00  0.00    -0.285 N 
ATOM      4  H   UNL A   1     -10.620 208.334 113.410  0.00  0.00    +0.155 HD
ENDROOT
BRANCH   3   5
ATOM      5  C   UNL A   1      -8.727 207.936 114.147  0.00  0.00    +0.034 A 
ATOM      6  C   UNL A   1      -8.294 209.027 114.897  0.00  0.00    +0.027 A 
ATOM      7  C   UNL A   1      -6.933 209.319 115.023  0.00  0.00    +0.047 A 
ATOM      8  C   UNL A   1      -5.982 208.515 114.400  0.00  0.00    +0.120 A 
ATOM      9  C   UNL A   1      -6.406 207.392 113.687  0.00  0.00    +0.047 A 
ATOM     10  C   UNL A   1      -7.772 207.095 113.568  0.00  0.00    +0.027 A 
BRANCH   8  11
ATOM     11  O   UNL A   1      -4.630 208.725 114.411  0.00  0.00    -0.495 OA
ATOM     12  C   UNL A   1      -3.844 207.819 113.642  0.00  0.00    +0.277 C 
ENDBRANCH   8  11
ENDBRANCH   3   5
BRANCH   1  13
ATOM     13  C   UNL A   1     -12.273 206.582 114.150  0.00  0.00    +0.173 C 
BRANCH  13  14
ATOM     14  S   UNL A   1     -12.503 205.262 112.921  0.00  0.00    -0.075 S 
BRANCH  14  20
ATOM     15  N   UNL A   1     -12.850 206.420 110.468  0.00  0.00    -0.223 N 
ATOM     16  C   UNL A   1     -14.268 206.235 110.342  0.00  0.00    +0.177 C 
ATOM     17  N   UNL A   1     -12.149 207.060 109.514  0.00  0.00    -0.043 NA
ATOM     18  N   UNL A   1     -10.898 207.089 109.957  0.00  0.00    -0.022 NA
ATOM     19  N   UNL A   1     -10.797 206.480 111.185  0.00  0.00    -0.102 NA
ATOM     20  C   UNL A   1     -12.008 206.071 111.482  0.00  0.00    +0.209 A 
ENDBRANCH  14  20
ENDBRANCH  13  14
ENDBRANCH   1  13
TORSDOF 5
ENDMDL
MODEL 7
REMARK minimizedAffinity -5.8717165
REMARK minimizedRMSD -1
REMARK  Name = CS53
REMARK  7 active torsions:
REMARK  status: ('A' for Active; 'I' for Inactive)
REMARK    1  A    between atoms: N_1  and  C_2
REMARK    2  A    between atoms: C_6  and  S_7
REMARK    3  A    between atoms: S_7  and  C_8
REMARK    4  A    between atoms: C_8  and  C_9
REMARK    5  A    between atoms: N_11  and  C_12
REMARK    6  A    between atoms: C_15  and  O_18
REMARK    7  A    between atoms: O_18  and  C_19
REMARK                            x       y       z     vdW  Elec       q    Type
REMARK                         _______ _______ _______ _____ _____    ______ ____
ROOT
ATOM      1  C   UNL A   1     -11.236 206.835 112.846  0.00  0.00    +0.228 C 
ATOM      2  O   UNL A   1     -10.894 207.322 111.769  0.00  0.00    -0.275 OA
ATOM      3  N   UNL A   1     -10.497 206.840 114.018  0.00  0.00    -0.285 N 
ATOM      4  H   UNL A   1     -10.793 206.199 114.751  0.00  0.00    +0.155 HD
ENDROOT
BRANCH   3   5
ATOM      5  C   UNL A   1      -9.229 207.434 114.192  0.00  0.00    +0.034 A 
ATOM      6  C   UNL A   1      -9.047 208.686 114.773  0.00  0.00    +0.027 A 
ATOM      7  C   UNL A   1      -7.775 209.261 114.861  0.00  0.00    +0.047 A 
ATOM      8  C   UNL A   1      -6.663 208.583 114.369  0.00  0.00    +0.120 A 
ATOM      9  C   UNL A   1      -6.832 207.307 113.829  0.00  0.00    +0.047 A 
ATOM     10  C   UNL A   1      -8.106 206.727 113.749  0.00  0.00    +0.027 A 
BRANCH   8  11
ATOM     11  O   UNL A   1      -5.381 209.060 114.356  0.00  0.00    -0.495 OA
ATOM     12  C   UNL A   1      -4.537 208.630 115.421  0.00  0.00    +0.277 C 
ENDBRANCH   8  11
ENDBRANCH   3   5
BRANCH   1  13
ATOM     13  C   UNL A   1     -12.562 206.100 112.960  0.00  0.00    +0.173 C 
BRANCH  13  14
ATOM     14  S   UNL A   1     -13.304 205.876 111.315  0.00  0.00    -0.075 S 
BRANCH  14  20
ATOM     15  N   UNL A   1     -15.534 204.641 112.305  0.00  0.00    -0.223 N 
ATOM     16  C   UNL A   1     -14.932 203.400 112.703  0.00  0.00    +0.177 C 
ATOM     17  N   UNL A   1     -16.841 204.876 112.522  0.00  0.00    -0.043 NA
ATOM     18  N   UNL A   1     -17.055 206.108 112.075  0.00  0.00    -0.022 NA
ATOM     19  N   UNL A   1     -15.897 206.661 111.583  0.00  0.00    -0.102 NA
ATOM     20  C   UNL A   1     -14.971 205.741 111.729  0.00  0.00    +0.209 A 
ENDBRANCH  14  20
ENDBRANCH  13  14
ENDBRANCH   1  13
TORSDOF 5
ENDMDL
MODEL 8
REMARK minimizedAffinity -5.79213572
REMARK minimizedRMSD -1
REMARK  Name = CS53
REMARK  7 active torsions:
REMARK  status: ('A' for Active; 'I' for Inactive)
REMARK    1  A    between atoms: N_1  and  C_2
REMARK    2  A    between atoms: C_6  and  S_7
REMARK    3  A    between atoms: S_7  and  C_8
REMARK    4  A    between atoms: C_8  and  C_9
REMARK    5  A    between atoms: N_11  and  C_12
REMARK    6  A    between atoms: C_15  and  O_18
REMARK    7  A    between atoms: O_18  and  C_19
REMARK                            x       y       z     vdW  Elec       q    Type
REMARK                         _______ _______ _______ _____ _____    ______ ____
ROOT
ATOM      1  C   UNL A   1     -15.570 204.402 115.817  0.00  0.00    +0.228 C 
ATOM      2  O   UNL A   1     -16.485 205.132 115.441  0.00  0.00    -0.275 OA
ATOM      3  N   UNL A   1     -14.396 204.140 115.128  0.00  0.00    -0.285 N 
ATOM      4  H   UNL A   1     -13.848 203.340 115.441  0.00  0.00    +0.155 HD
ENDROOT
BRANCH   3   5
ATOM      5  C   UNL A   1     -14.029 204.690 113.882  0.00  0.00    +0.034 A 
ATOM      6  C   UNL A   1     -13.084 205.703 113.745  0.00  0.00    +0.027 A 
ATOM      7  C   UNL A   1     -12.805 206.263 112.494  0.00  0.00    +0.047 A 
ATOM      8  C   UNL A   1     -13.469 205.809 111.358  0.00  0.00    +0.120 A 
ATOM      9  C   UNL A   1     -14.383 204.760 111.481  0.00  0.00    +0.047 A 
ATOM     10  C   UNL A   1     -14.656 204.193 112.734  0.00  0.00    +0.027 A 
BRANCH   8  11
ATOM     11  O   UNL A   1     -13.317 206.307 110.094  0.00  0.00    -0.495 OA
ATOM     12  C   UNL A   1     -12.039 206.855 109.780  0.00  0.00    +0.277 C 
ENDBRANCH   8  11
ENDBRANCH   3   5
BRANCH   1  13
ATOM     13  C   UNL A   1     -15.692 203.645 117.130  0.00  0.00    +0.173 C 
BRANCH  13  14
ATOM     14  S   UNL A   1     -14.089 203.604 117.988  0.00  0.00    -0.075 S 
BRANCH  14  20
ATOM     15  N   UNL A   1     -14.266 205.727 119.703  0.00  0.00    -0.223 N 
ATOM     16  C   UNL A   1     -14.771 205.031 120.853  0.00  0.00    +0.177 C 
ATOM     17  N   UNL A   1     -14.001 207.045 119.753  0.00  0.00    -0.043 NA
ATOM     18  N   UNL A   1     -13.522 207.354 118.554  0.00  0.00    -0.022 NA
ATOM     19  N   UNL A   1     -13.473 206.245 117.744  0.00  0.00    -0.102 NA
ATOM     20  C   UNL A   1     -13.939 205.252 118.467  0.00  0.00    +0.209 A 
ENDBRANCH  14  20
ENDBRANCH  13  14
ENDBRANCH   1  13
TORSDOF 5
ENDMDL
MODEL 9
REMARK minimizedAffinity -5.78451824
REMARK minimizedRMSD -1
REMARK  Name = CS53
REMARK  7 active torsions:
REMARK  status: ('A' for Active; 'I' for Inactive)
REMARK    1  A    between atoms: N_1  and  C_2
REMARK    2  A    between atoms: C_6  and  S_7
REMARK    3  A    between atoms: S_7  and  C_8
REMARK    4  A    between atoms: C_8  and  C_9
REMARK    5  A    between atoms: N_11  and  C_12
REMARK    6  A    between atoms: C_15  and  O_18
REMARK    7  A    between atoms: O_18  and  C_19
REMARK                            x       y       z     vdW  Elec       q    Type
REMARK                         _______ _______ _______ _____ _____    ______ ____
ROOT
ATOM      1  C   UNL A   1      -9.991 206.972 112.794  0.00  0.00    +0.228 C 
ATOM      2  O   UNL A   1     -10.535 207.730 111.992  0.00  0.00    -0.275 OA
ATOM      3  N   UNL A   1     -10.571 205.869 113.398  0.00  0.00    -0.285 N 
ATOM      4  H   UNL A   1     -10.092 205.485 114.211  0.00  0.00    +0.155 HD
ENDROOT
BRANCH   3   5
ATOM      5  C   UNL A   1     -11.883 205.399 113.177  0.00  0.00    +0.034 A 
ATOM      6  C   UNL A   1     -12.426 205.223 111.907  0.00  0.00    +0.027 A 
ATOM      7  C   UNL A   1     -13.754 204.821 111.741  0.00  0.00    +0.047 A 
ATOM      8  C   UNL A   1     -14.560 204.585 112.851  0.00  0.00    +0.120 A 
ATOM      9  C   UNL A   1     -14.009 204.712 114.128  0.00  0.00    +0.047 A 
ATOM     10  C   UNL A   1     -12.673 205.108 114.294  0.00  0.00    +0.027 A 
BRANCH   8  11
ATOM     11  O   UNL A   1     -15.881 204.234 112.817  0.00  0.00    -0.495 OA
ATOM     12  C   UNL A   1     -16.792 205.242 112.385  0.00  0.00    +0.277 C 
ENDBRANCH   8  11
ENDBRANCH   3   5
BRANCH   1  13
ATOM     13  C   UNL A   1      -8.565 207.241 113.247  0.00  0.00    +0.173 C 
BRANCH  13  14
ATOM     14  S   UNL A   1      -8.507 208.717 114.308  0.00  0.00    -0.075 S 
BRANCH  14  20
ATOM     15  N   UNL A   1      -8.864 207.575 116.766  0.00  0.00    -0.223 N 
ATOM     16  C   UNL A   1      -7.491 207.279 117.066  0.00  0.00    +0.177 C 
ATOM     17  N   UNL A   1      -9.840 207.301 117.652  0.00  0.00    -0.043 NA
ATOM     18  N   UNL A   1     -10.960 207.728 117.083  0.00  0.00    -0.022 NA
ATOM     19  N   UNL A   1     -10.707 208.277 115.849  0.00  0.00    -0.102 NA
ATOM     20  C   UNL A   1      -9.411 208.171 115.669  0.00  0.00    +0.209 A 
ENDBRANCH  14  20
ENDBRANCH  13  14
ENDBRANCH   1  13
TORSDOF 5
ENDMDL
