MODEL 1
REMARK minimizedAffinity -8.21187878
REMARK minimizedRMSD -1
REMARK  Name = CS55
REMARK  9 active torsions:
REMARK  status: ('A' for Active; 'I' for Inactive)
REMARK    1  A    between atoms: C_2  and  C_3
REMARK    2  A    between atoms: C_2  and  C_4
REMARK    3  A    between atoms: C_7  and  O_20
REMARK    4  A    between atoms: C_8  and  C_9
REMARK    5  A    between atoms: C_9  and  C_10
REMARK    6  A    between atoms: C_11  and  O_12
REMARK    7  A    between atoms: C_17  and  O_18
REMARK    8  A    between atoms: O_20  and  C_21
REMARK    9  A    between atoms: C_21  and  C_22
REMARK                            x       y       z     vdW  Elec       q    Type
REMARK                         _______ _______ _______ _____ _____    ______ ____
ROOT
ATOM      1  C   UNL A   1     -12.994 207.188 114.490  0.00  0.00    +0.084 C 
ENDROOT
BRANCH   1   2
ATOM      2  C   UNL A   1     -12.991 206.371 115.752  0.00  0.00    +0.080 A 
ATOM      3  C   UNL A   1     -12.354 205.162 115.933  0.00  0.00    +0.224 A 
ATOM      4  N   UNL A   1     -12.412 204.434 117.061  0.00  0.00    -0.179 NA
ATOM      5  C   UNL A   1     -13.131 204.930 118.063  0.00  0.00    +0.219 A 
ATOM      6  N   UNL A   1     -13.246 204.170 119.211  0.00  0.00    -0.327 N 
ATOM      7  N   UNL A   1     -13.794 206.081 118.020  0.00  0.00    -0.179 NA
ATOM      8  C   UNL A   1     -13.686 206.762 116.874  0.00  0.00    +0.224 A 
ATOM      9  H   UNL A   1     -13.048 203.203 118.982  0.00  0.00    +0.145 HD
ATOM     10  H   UNL A   1     -14.122 204.367 119.673  0.00  0.00    +0.145 HD
BRANCH   3  11
ATOM     11  O   UNL A   1     -11.591 204.564 114.976  0.00  0.00    -0.492 OA
ATOM     12  H   UNL A   1     -11.542 205.127 114.197  0.00  0.00    +0.294 HD
ENDBRANCH   3  11
BRANCH   8  13
ATOM     13  O   UNL A   1     -14.340 207.947 116.926  0.00  0.00    -0.492 OA
ATOM     14  H   UNL A   1     -14.708 207.907 117.826  0.00  0.00    +0.294 HD
ENDBRANCH   8  13
ENDBRANCH   1   2
BRANCH   1  19
ATOM     15  C   UNL A   1     -16.016 206.146 112.387  0.00  0.00    +0.018 A 
ATOM     16  C   UNL A   1     -15.399 205.629 111.247  0.00  0.00    +0.015 A 
ATOM     17  C   UNL A   1     -14.006 205.559 111.168  0.00  0.00    +0.046 A 
ATOM     18  C   UNL A   1     -13.208 206.021 112.220  0.00  0.00    +0.124 A 
ATOM     19  C   UNL A   1     -13.815 206.580 113.363  0.00  0.00    -0.000 A 
ATOM     20  C   UNL A   1     -15.223 206.615 113.439  0.00  0.00    +0.018 A 
BRANCH  15  22
ATOM     21  O   UNL A   1     -18.101 205.504 113.290  0.00  0.00    -0.292 OA
ATOM     22  C   UNL A   1     -17.509 206.175 112.447  0.00  0.00    +0.160 C 
ATOM     23  C   UNL A   1     -18.262 207.034 111.465  0.00  0.00    +0.091 C 
ENDBRANCH  15  22
BRANCH  18  24
ATOM     24  O   UNL A   1     -11.846 205.893 112.253  0.00  0.00    -0.492 OA
BRANCH  24  25
ATOM     25  C   UNL A   1     -11.095 206.588 111.260  0.00  0.00    +0.226 C 
ATOM     26  C   UNL A   1     -10.255 207.648 111.953  0.00  0.00    +0.048 C 
ENDBRANCH  24  25
ENDBRANCH  18  24
ENDBRANCH   1  19
TORSDOF 7
ENDMDL
MODEL 2
REMARK minimizedAffinity -7.89814234
REMARK minimizedRMSD -1
REMARK  Name = CS55
REMARK  9 active torsions:
REMARK  status: ('A' for Active; 'I' for Inactive)
REMARK    1  A    between atoms: C_2  and  C_3
REMARK    2  A    between atoms: C_2  and  C_4
REMARK    3  A    between atoms: C_7  and  O_20
REMARK    4  A    between atoms: C_8  and  C_9
REMARK    5  A    between atoms: C_9  and  C_10
REMARK    6  A    between atoms: C_11  and  O_12
REMARK    7  A    between atoms: C_17  and  O_18
REMARK    8  A    between atoms: O_20  and  C_21
REMARK    9  A    between atoms: C_21  and  C_22
REMARK                            x       y       z     vdW  Elec       q    Type
REMARK                         _______ _______ _______ _____ _____    ______ ____
ROOT
ATOM      1  C   UNL A   1     -13.654 204.476 114.709  0.00  0.00    +0.084 C 
ENDROOT
BRANCH   1   2
ATOM      2  C   UNL A   1     -13.021 205.508 115.599  0.00  0.00    +0.080 A 
ATOM      3  C   UNL A   1     -13.682 206.320 116.497  0.00  0.00    +0.224 A 
ATOM      4  N   UNL A   1     -13.090 207.267 117.244  0.00  0.00    -0.179 NA
ATOM      5  C   UNL A   1     -11.777 207.415 117.102  0.00  0.00    +0.219 A 
ATOM      6  N   UNL A   1     -11.160 208.419 117.822  0.00  0.00    -0.327 N 
ATOM      7  N   UNL A   1     -11.021 206.701 116.274  0.00  0.00    -0.179 NA
ATOM      8  C   UNL A   1     -11.670 205.768 115.568  0.00  0.00    +0.224 A 
ATOM      9  H   UNL A   1     -11.857 209.106 118.084  0.00  0.00    +0.145 HD
ATOM     10  H   UNL A   1     -10.345 208.752 117.328  0.00  0.00    +0.145 HD
BRANCH   3  11
ATOM     11  O   UNL A   1     -15.024 206.252 116.724  0.00  0.00    -0.492 OA
ATOM     12  H   UNL A   1     -15.408 205.542 116.201  0.00  0.00    +0.294 HD
ENDBRANCH   3  11
BRANCH   8  13
ATOM     13  O   UNL A   1     -10.827 205.045 114.790  0.00  0.00    -0.492 OA
ATOM     14  H   UNL A   1      -9.980 205.476 115.000  0.00  0.00    +0.294 HD
ENDBRANCH   8  13
ENDBRANCH   1   2
BRANCH   1  19
ATOM     15  C   UNL A   1     -16.381 205.869 112.414  0.00  0.00    +0.018 A 
ATOM     16  C   UNL A   1     -15.633 206.280 111.309  0.00  0.00    +0.015 A 
ATOM     17  C   UNL A   1     -14.254 206.060 111.268  0.00  0.00    +0.046 A 
ATOM     18  C   UNL A   1     -13.598 205.444 112.339  0.00  0.00    +0.124 A 
ATOM     19  C   UNL A   1     -14.333 205.057 113.478  0.00  0.00    -0.000 A 
ATOM     20  C   UNL A   1     -15.728 205.258 113.490  0.00  0.00    +0.018 A 
BRANCH  15  22
ATOM     21  O   UNL A   1     -18.574 205.484 113.200  0.00  0.00    -0.292 OA
ATOM     22  C   UNL A   1     -17.859 206.092 112.407  0.00  0.00    +0.160 C 
ATOM     23  C   UNL A   1     -18.444 207.067 111.418  0.00  0.00    +0.091 C 
ENDBRANCH  15  22
BRANCH  18  24
ATOM     24  O   UNL A   1     -12.271 205.109 112.325  0.00  0.00    -0.492 OA
BRANCH  24  25
ATOM     25  C   UNL A   1     -11.424 205.812 111.417  0.00  0.00    +0.226 C 
ATOM     26  C   UNL A   1     -10.894 207.050 112.122  0.00  0.00    +0.048 C 
ENDBRANCH  24  25
ENDBRANCH  18  24
ENDBRANCH   1  19
TORSDOF 7
ENDMDL
MODEL 3
REMARK minimizedAffinity -7.6638813
REMARK minimizedRMSD -1
REMARK  Name = CS55
REMARK  9 active torsions:
REMARK  status: ('A' for Active; 'I' for Inactive)
REMARK    1  A    between atoms: C_2  and  C_3
REMARK    2  A    between atoms: C_2  and  C_4
REMARK    3  A    between atoms: C_7  and  O_20
REMARK    4  A    between atoms: C_8  and  C_9
REMARK    5  A    between atoms: C_9  and  C_10
REMARK    6  A    between atoms: C_11  and  O_12
REMARK    7  A    between atoms: C_17  and  O_18
REMARK    8  A    between atoms: O_20  and  C_21
REMARK    9  A    between atoms: C_21  and  C_22
REMARK                            x       y       z     vdW  Elec       q    Type
REMARK                         _______ _______ _______ _____ _____    ______ ____
ROOT
ATOM      1  C   UNL A   1     -15.502 206.824 114.869  0.00  0.00    +0.084 C 
ENDROOT
BRANCH   1   2
ATOM      2  C   UNL A   1     -14.916 206.011 115.990  0.00  0.00    +0.080 A 
ATOM      3  C   UNL A   1     -14.951 204.637 116.099  0.00  0.00    +0.224 A 
ATOM      4  N   UNL A   1     -14.459 203.944 117.139  0.00  0.00    -0.179 NA
ATOM      5  C   UNL A   1     -13.896 204.644 118.119  0.00  0.00    +0.219 A 
ATOM      6  N   UNL A   1     -13.432 203.953 119.221  0.00  0.00    -0.327 N 
ATOM      7  N   UNL A   1     -13.796 205.969 118.139  0.00  0.00    -0.179 NA
ATOM      8  C   UNL A   1     -14.296 206.598 117.069  0.00  0.00    +0.224 A 
ATOM      9  H   UNL A   1     -13.901 203.056 119.263  0.00  0.00    +0.145 HD
ATOM     10  H   UNL A   1     -13.476 204.537 120.042  0.00  0.00    +0.145 HD
BRANCH   3  11
ATOM     11  O   UNL A   1     -15.500 203.822 115.154  0.00  0.00    -0.492 OA
ATOM     12  H   UNL A   1     -15.810 204.348 114.409  0.00  0.00    +0.294 HD
ENDBRANCH   3  11
BRANCH   8  13
ATOM     13  O   UNL A   1     -14.108 207.938 117.136  0.00  0.00    -0.492 OA
ATOM     14  H   UNL A   1     -13.659 208.011 117.997  0.00  0.00    +0.294 HD
ENDBRANCH   8  13
ENDBRANCH   1   2
BRANCH   1  19
ATOM     15  C   UNL A   1     -12.930 206.133 112.121  0.00  0.00    +0.018 A 
ATOM     16  C   UNL A   1     -13.752 205.759 111.057  0.00  0.00    +0.015 A 
ATOM     17  C   UNL A   1     -15.142 205.781 111.196  0.00  0.00    +0.046 A 
ATOM     18  C   UNL A   1     -15.732 206.159 112.407  0.00  0.00    +0.124 A 
ATOM     19  C   UNL A   1     -14.915 206.504 113.503  0.00  0.00    -0.000 A 
ATOM     20  C   UNL A   1     -13.515 206.506 113.336  0.00  0.00    +0.018 A 
BRANCH  15  22
ATOM     21  O   UNL A   1     -10.982 206.062 110.789  0.00  0.00    -0.292 OA
ATOM     22  C   UNL A   1     -11.449 206.128 111.923  0.00  0.00    +0.160 C 
ATOM     23  C   UNL A   1     -10.553 206.206 113.132  0.00  0.00    +0.091 C 
ENDBRANCH  15  22
BRANCH  18  24
ATOM     24  O   UNL A   1     -17.082 206.298 112.583  0.00  0.00    -0.492 OA
BRANCH  24  25
ATOM     25  C   UNL A   1     -17.835 206.839 111.500  0.00  0.00    +0.226 C 
ATOM     26  C   UNL A   1     -19.306 206.812 111.882  0.00  0.00    +0.048 C 
ENDBRANCH  24  25
ENDBRANCH  18  24
ENDBRANCH   1  19
TORSDOF 7
ENDMDL
MODEL 4
REMARK minimizedAffinity -7.63980293
REMARK minimizedRMSD -1
REMARK  Name = CS55
REMARK  9 active torsions:
REMARK  status: ('A' for Active; 'I' for Inactive)
REMARK    1  A    between atoms: C_2  and  C_3
REMARK    2  A    between atoms: C_2  and  C_4
REMARK    3  A    between atoms: C_7  and  O_20
REMARK    4  A    between atoms: C_8  and  C_9
REMARK    5  A    between atoms: C_9  and  C_10
REMARK    6  A    between atoms: C_11  and  O_12
REMARK    7  A    between atoms: C_17  and  O_18
REMARK    8  A    between atoms: O_20  and  C_21
REMARK    9  A    between atoms: C_21  and  C_22
REMARK                            x       y       z     vdW  Elec       q    Type
REMARK                         _______ _______ _______ _____ _____    ______ ____
ROOT
ATOM      1  C   UNL A   1     -14.833 206.956 114.845  0.00  0.00    +0.084 C 
ENDROOT
BRANCH   1   2
ATOM      2  C   UNL A   1     -14.697 206.145 116.104  0.00  0.00    +0.080 A 
ATOM      3  C   UNL A   1     -14.142 206.576 117.290  0.00  0.00    +0.224 A 
ATOM      4  N   UNL A   1     -13.993 205.808 118.383  0.00  0.00    -0.179 NA
ATOM      5  C   UNL A   1     -14.421 204.552 118.301  0.00  0.00    +0.219 A 
ATOM      6  N   UNL A   1     -14.227 203.733 119.396  0.00  0.00    -0.327 N 
ATOM      7  N   UNL A   1     -14.973 204.011 117.220  0.00  0.00    -0.179 NA
ATOM      8  C   UNL A   1     -15.102 204.831 116.171  0.00  0.00    +0.224 A 
ATOM      9  H   UNL A   1     -13.483 204.120 119.964  0.00  0.00    +0.145 HD
ATOM     10  H   UNL A   1     -14.132 202.773 119.100  0.00  0.00    +0.145 HD
BRANCH   3  11
ATOM     11  O   UNL A   1     -13.675 207.841 117.485  0.00  0.00    -0.492 OA
ATOM     12  H   UNL A   1     -13.829 208.371 116.697  0.00  0.00    +0.294 HD
ENDBRANCH   3  11
BRANCH   8  13
ATOM     13  O   UNL A   1     -15.722 204.227 115.129  0.00  0.00    -0.492 OA
ATOM     14  H   UNL A   1     -15.865 203.338 115.500  0.00  0.00    +0.294 HD
ENDBRANCH   8  13
ENDBRANCH   1   2
BRANCH   1  19
ATOM     15  C   UNL A   1     -11.449 206.753 113.070  0.00  0.00    +0.018 A 
ATOM     16  C   UNL A   1     -11.756 205.946 111.974  0.00  0.00    +0.015 A 
ATOM     17  C   UNL A   1     -13.066 205.507 111.765  0.00  0.00    +0.046 A 
ATOM     18  C   UNL A   1     -14.085 205.852 112.658  0.00  0.00    +0.124 A 
ATOM     19  C   UNL A   1     -13.784 206.637 113.791  0.00  0.00    -0.000 A 
ATOM     20  C   UNL A   1     -12.463 207.097 113.970  0.00  0.00    +0.018 A 
BRANCH  15  22
ATOM     21  O   UNL A   1      -9.656 208.227 112.637  0.00  0.00    -0.292 OA
ATOM     22  C   UNL A   1     -10.043 207.230 113.242  0.00  0.00    +0.160 C 
ATOM     23  C   UNL A   1      -9.123 206.470 114.163  0.00  0.00    +0.091 C 
ENDBRANCH  15  22
BRANCH  18  24
ATOM     24  O   UNL A   1     -15.403 205.542 112.463  0.00  0.00    -0.492 OA
BRANCH  24  25
ATOM     25  C   UNL A   1     -16.074 206.172 111.374  0.00  0.00    +0.226 C 
ATOM     26  C   UNL A   1     -17.455 206.596 111.846  0.00  0.00    +0.048 C 
ENDBRANCH  24  25
ENDBRANCH  18  24
ENDBRANCH   1  19
TORSDOF 7
ENDMDL
MODEL 5
REMARK minimizedAffinity -7.59398413
REMARK minimizedRMSD -1
REMARK  Name = CS55
REMARK  9 active torsions:
REMARK  status: ('A' for Active; 'I' for Inactive)
REMARK    1  A    between atoms: C_2  and  C_3
REMARK    2  A    between atoms: C_2  and  C_4
REMARK    3  A    between atoms: C_7  and  O_20
REMARK    4  A    between atoms: C_8  and  C_9
REMARK    5  A    between atoms: C_9  and  C_10
REMARK    6  A    between atoms: C_11  and  O_12
REMARK    7  A    between atoms: C_17  and  O_18
REMARK    8  A    between atoms: O_20  and  C_21
REMARK    9  A    between atoms: C_21  and  C_22
REMARK                            x       y       z     vdW  Elec       q    Type
REMARK                         _______ _______ _______ _____ _____    ______ ____
ROOT
ATOM      1  C   UNL A   1     -13.943 204.671 113.229  0.00  0.00    +0.084 C 
ENDROOT
BRANCH   1   2
ATOM      2  C   UNL A   1     -15.202 205.373 112.800  0.00  0.00    +0.080 A 
ATOM      3  C   UNL A   1     -16.324 205.571 113.576  0.00  0.00    +0.224 A 
ATOM      4  N   UNL A   1     -17.451 206.161 113.145  0.00  0.00    -0.179 NA
ATOM      5  C   UNL A   1     -17.469 206.582 111.884  0.00  0.00    +0.219 A 
ATOM      6  N   UNL A   1     -18.638 207.142 111.408  0.00  0.00    -0.327 N 
ATOM      7  N   UNL A   1     -16.458 206.453 111.031  0.00  0.00    -0.179 NA
ATOM      8  C   UNL A   1     -15.362 205.868 111.526  0.00  0.00    +0.224 A 
ATOM      9  H   UNL A   1     -19.407 206.833 111.990  0.00  0.00    +0.145 HD
ATOM     10  H   UNL A   1     -18.718 206.987 110.413  0.00  0.00    +0.145 HD
BRANCH   3  11
ATOM     11  O   UNL A   1     -16.414 205.183 114.879  0.00  0.00    -0.492 OA
ATOM     12  H   UNL A   1     -15.580 204.798 115.164  0.00  0.00    +0.294 HD
ENDBRANCH   3  11
BRANCH   8  13
ATOM     13  O   UNL A   1     -14.358 205.822 110.617  0.00  0.00    -0.492 OA
ATOM     14  H   UNL A   1     -14.792 206.240 109.852  0.00  0.00    +0.294 HD
ENDBRANCH   8  13
ENDBRANCH   1   2
BRANCH   1  19
ATOM     15  C   UNL A   1     -10.735 206.716 112.816  0.00  0.00    +0.018 A 
ATOM     16  C   UNL A   1     -10.724 207.459 113.997  0.00  0.00    +0.015 A 
ATOM     17  C   UNL A   1     -11.715 207.269 114.962  0.00  0.00    +0.046 A 
ATOM     18  C   UNL A   1     -12.745 206.345 114.753  0.00  0.00    +0.124 A 
ATOM     19  C   UNL A   1     -12.792 205.612 113.549  0.00  0.00    -0.000 A 
ATOM     20  C   UNL A   1     -11.766 205.795 112.600  0.00  0.00    +0.018 A 
BRANCH  15  22
ATOM     21  O   UNL A   1      -9.863 206.784 110.623  0.00  0.00    -0.292 OA
ATOM     22  C   UNL A   1      -9.638 206.925 111.823  0.00  0.00    +0.160 C 
ATOM     23  C   UNL A   1      -8.268 207.307 112.320  0.00  0.00    +0.091 C 
ENDBRANCH  15  22
BRANCH  18  24
ATOM     24  O   UNL A   1     -13.691 206.036 115.693  0.00  0.00    -0.492 OA
BRANCH  24  25
ATOM     25  C   UNL A   1     -14.066 207.062 116.610  0.00  0.00    +0.226 C 
ATOM     26  C   UNL A   1     -14.861 208.112 115.852  0.00  0.00    +0.048 C 
ENDBRANCH  24  25
ENDBRANCH  18  24
ENDBRANCH   1  19
TORSDOF 7
ENDMDL
MODEL 6
REMARK minimizedAffinity -7.5745368
REMARK minimizedRMSD -1
REMARK  Name = CS55
REMARK  9 active torsions:
REMARK  status: ('A' for Active; 'I' for Inactive)
REMARK    1  A    between atoms: C_2  and  C_3
REMARK    2  A    between atoms: C_2  and  C_4
REMARK    3  A    between atoms: C_7  and  O_20
REMARK    4  A    between atoms: C_8  and  C_9
REMARK    5  A    between atoms: C_9  and  C_10
REMARK    6  A    between atoms: C_11  and  O_12
REMARK    7  A    between atoms: C_17  and  O_18
REMARK    8  A    between atoms: O_20  and  C_21
REMARK    9  A    between atoms: C_21  and  C_22
REMARK                            x       y       z     vdW  Elec       q    Type
REMARK                         _______ _______ _______ _____ _____    ______ ____
ROOT
ATOM      1  C   UNL A   1     -11.532 204.754 114.890  0.00  0.00    +0.084 C 
ENDROOT
BRANCH   1   2
ATOM      2  C   UNL A   1     -11.934 205.555 116.097  0.00  0.00    +0.080 A 
ATOM      3  C   UNL A   1     -13.126 206.227 116.264  0.00  0.00    +0.224 A 
ATOM      4  N   UNL A   1     -13.434 206.973 117.338  0.00  0.00    -0.179 NA
ATOM      5  C   UNL A   1     -12.519 207.055 118.299  0.00  0.00    +0.219 A 
ATOM      6  N   UNL A   1     -12.796 207.861 119.386  0.00  0.00    -0.327 N 
ATOM      7  N   UNL A   1     -11.332 206.459 118.264  0.00  0.00    -0.179 NA
ATOM      8  C   UNL A   1     -11.093 205.722 117.173  0.00  0.00    +0.224 A 
ATOM      9  H   UNL A   1     -13.506 208.533 119.120  0.00  0.00    +0.145 HD
ATOM     10  H   UNL A   1     -11.939 208.223 119.778  0.00  0.00    +0.145 HD
BRANCH   3  11
ATOM     11  O   UNL A   1     -14.133 206.210 115.346  0.00  0.00    -0.492 OA
ATOM     12  H   UNL A   1     -13.894 205.639 114.609  0.00  0.00    +0.294 HD
ENDBRANCH   3  11
BRANCH   8  13
ATOM     13  O   UNL A   1      -9.889 205.102 117.235  0.00  0.00    -0.492 OA
ATOM     14  H   UNL A   1      -9.567 205.426 118.094  0.00  0.00    +0.294 HD
ENDBRANCH   8  13
ENDBRANCH   1   2
BRANCH   1  19
ATOM     15  C   UNL A   1      -9.506 207.015 112.560  0.00  0.00    +0.018 A 
ATOM     16  C   UNL A   1     -10.322 207.052 111.429  0.00  0.00    +0.015 A 
ATOM     17  C   UNL A   1     -11.556 206.399 111.424  0.00  0.00    +0.046 A 
ATOM     18  C   UNL A   1     -11.986 205.681 112.546  0.00  0.00    +0.124 A 
ATOM     19  C   UNL A   1     -11.158 205.603 113.684  0.00  0.00    -0.000 A 
ATOM     20  C   UNL A   1      -9.929 206.294 113.682  0.00  0.00    +0.018 A 
BRANCH  15  22
ATOM     21  O   UNL A   1      -8.123 208.860 113.067  0.00  0.00    -0.292 OA
ATOM     22  C   UNL A   1      -8.208 207.755 112.538  0.00  0.00    +0.160 C 
ATOM     23  C   UNL A   1      -7.021 207.121 111.860  0.00  0.00    +0.091 C 
ENDBRANCH  15  22
BRANCH  18  24
ATOM     24  O   UNL A   1     -13.222 205.101 112.648  0.00  0.00    -0.492 OA
BRANCH  24  25
ATOM     25  C   UNL A   1     -13.952 204.889 111.441  0.00  0.00    +0.226 C 
ATOM     26  C   UNL A   1     -15.237 205.696 111.514  0.00  0.00    +0.048 C 
ENDBRANCH  24  25
ENDBRANCH  18  24
ENDBRANCH   1  19
TORSDOF 7
ENDMDL
MODEL 7
REMARK minimizedAffinity -7.53058815
REMARK minimizedRMSD -1
REMARK  Name = CS55
REMARK  9 active torsions:
REMARK  status: ('A' for Active; 'I' for Inactive)
REMARK    1  A    between atoms: C_2  and  C_3
REMARK    2  A    between atoms: C_2  and  C_4
REMARK    3  A    between atoms: C_7  and  O_20
REMARK    4  A    between atoms: C_8  and  C_9
REMARK    5  A    between atoms: C_9  and  C_10
REMARK    6  A    between atoms: C_11  and  O_12
REMARK    7  A    between atoms: C_17  and  O_18
REMARK    8  A    between atoms: O_20  and  C_21
REMARK    9  A    between atoms: C_21  and  C_22
REMARK                            x       y       z     vdW  Elec       q    Type
REMARK                         _______ _______ _______ _____ _____    ______ ____
ROOT
ATOM      1  C   UNL A   1     -13.788 204.800 113.463  0.00  0.00    +0.084 C 
ENDROOT
BRANCH   1   2
ATOM      2  C   UNL A   1     -15.037 205.389 112.867  0.00  0.00    +0.080 A 
ATOM      3  C   UNL A   1     -15.161 205.908 111.595  0.00  0.00    +0.224 A 
ATOM      4  N   UNL A   1     -16.281 206.470 111.111  0.00  0.00    -0.179 NA
ATOM      5  C   UNL A   1     -17.334 206.516 111.921  0.00  0.00    +0.219 A 
ATOM      6  N   UNL A   1     -18.477 207.139 111.458  0.00  0.00    -0.327 N 
ATOM      7  N   UNL A   1     -17.348 206.054 113.167  0.00  0.00    -0.179 NA
ATOM      8  C   UNL A   1     -16.206 205.497 113.584  0.00  0.00    +0.224 A 
ATOM      9  H   UNL A   1     -18.223 207.764 110.703  0.00  0.00    +0.145 HD
ATOM     10  H   UNL A   1     -18.995 207.532 112.230  0.00  0.00    +0.145 HD
BRANCH   3  11
ATOM     11  O   UNL A   1     -14.149 205.911 110.682  0.00  0.00    -0.492 OA
ATOM     12  H   UNL A   1     -13.377 205.470 111.050  0.00  0.00    +0.294 HD
ENDBRANCH   3  11
BRANCH   8  13
ATOM     13  O   UNL A   1     -16.314 204.999 114.840  0.00  0.00    -0.492 OA
ATOM     14  H   UNL A   1     -17.236 205.238 115.046  0.00  0.00    +0.294 HD
ENDBRANCH   8  13
ENDBRANCH   1   2
BRANCH   1  19
ATOM     15  C   UNL A   1     -12.386 206.954 116.298  0.00  0.00    +0.018 A 
ATOM     16  C   UNL A   1     -11.273 207.532 115.685  0.00  0.00    +0.015 A 
ATOM     17  C   UNL A   1     -10.996 207.280 114.339  0.00  0.00    +0.046 A 
ATOM     18  C   UNL A   1     -11.817 206.431 113.590  0.00  0.00    +0.124 A 
ATOM     19  C   UNL A   1     -12.924 205.809 114.203  0.00  0.00    -0.000 A 
ATOM     20  C   UNL A   1     -13.206 206.099 115.554  0.00  0.00    +0.018 A 
BRANCH  15  22
ATOM     21  O   UNL A   1     -13.825 207.285 118.140  0.00  0.00    -0.292 OA
ATOM     22  C   UNL A   1     -12.667 207.274 117.730  0.00  0.00    +0.160 C 
ATOM     23  C   UNL A   1     -11.512 207.578 118.649  0.00  0.00    +0.091 C 
ENDBRANCH  15  22
BRANCH  18  24
ATOM     24  O   UNL A   1     -11.664 206.217 112.247  0.00  0.00    -0.492 OA
BRANCH  24  25
ATOM     25  C   UNL A   1     -10.790 207.093 111.536  0.00  0.00    +0.226 C 
ATOM     26  C   UNL A   1     -10.710 206.619 110.095  0.00  0.00    +0.048 C 
ENDBRANCH  24  25
ENDBRANCH  18  24
ENDBRANCH   1  19
TORSDOF 7
ENDMDL
MODEL 8
REMARK minimizedAffinity -7.43717337
REMARK minimizedRMSD -1
REMARK  Name = CS55
REMARK  9 active torsions:
REMARK  status: ('A' for Active; 'I' for Inactive)
REMARK    1  A    between atoms: C_2  and  C_3
REMARK    2  A    between atoms: C_2  and  C_4
REMARK    3  A    between atoms: C_7  and  O_20
REMARK    4  A    between atoms: C_8  and  C_9
REMARK    5  A    between atoms: C_9  and  C_10
REMARK    6  A    between atoms: C_11  and  O_12
REMARK    7  A    between atoms: C_17  and  O_18
REMARK    8  A    between atoms: O_20  and  C_21
REMARK    9  A    between atoms: C_21  and  C_22
REMARK                            x       y       z     vdW  Elec       q    Type
REMARK                         _______ _______ _______ _____ _____    ______ ____
ROOT
ATOM      1  C   UNL A   1     -13.892 204.296 113.317  0.00  0.00    +0.084 C 
ENDROOT
BRANCH   1   2
ATOM      2  C   UNL A   1     -15.092 205.039 112.798  0.00  0.00    +0.080 A 
ATOM      3  C   UNL A   1     -15.271 205.490 111.507  0.00  0.00    +0.224 A 
ATOM      4  N   UNL A   1     -16.336 206.193 111.088  0.00  0.00    -0.179 NA
ATOM      5  C   UNL A   1     -17.277 206.459 111.989  0.00  0.00    +0.219 A 
ATOM      6  N   UNL A   1     -18.353 207.226 111.590  0.00  0.00    -0.327 N 
ATOM      7  N   UNL A   1     -17.229 206.084 113.264  0.00  0.00    -0.179 NA
ATOM      8  C   UNL A   1     -16.148 205.378 113.613  0.00  0.00    +0.224 A 
ATOM      9  H   UNL A   1     -18.089 207.754 110.767  0.00  0.00    +0.145 HD
ATOM     10  H   UNL A   1     -18.721 207.745 112.374  0.00  0.00    +0.145 HD
BRANCH   3  11
ATOM     11  O   UNL A   1     -14.373 205.272 110.504  0.00  0.00    -0.492 OA
ATOM     12  H   UNL A   1     -13.643 204.737 110.830  0.00  0.00    +0.294 HD
ENDBRANCH   3  11
BRANCH   8  13
ATOM     13  O   UNL A   1     -16.197 204.985 114.909  0.00  0.00    -0.492 OA
ATOM     14  H   UNL A   1     -17.043 205.381 115.182  0.00  0.00    +0.294 HD
ENDBRANCH   8  13
ENDBRANCH   1   2
BRANCH   1  19
ATOM     15  C   UNL A   1     -10.818 206.546 112.952  0.00  0.00    +0.018 A 
ATOM     16  C   UNL A   1     -10.643 206.994 114.262  0.00  0.00    +0.015 A 
ATOM     17  C   UNL A   1     -11.476 206.533 115.284  0.00  0.00    +0.046 A 
ATOM     18  C   UNL A   1     -12.509 205.631 115.009  0.00  0.00    +0.124 A 
ATOM     19  C   UNL A   1     -12.723 205.196 113.686  0.00  0.00    -0.000 A 
ATOM     20  C   UNL A   1     -11.854 205.648 112.671  0.00  0.00    +0.018 A 
BRANCH  15  22
ATOM     21  O   UNL A   1      -8.826 207.571 112.207  0.00  0.00    -0.292 OA
ATOM     22  C   UNL A   1      -9.886 207.036 111.892  0.00  0.00    +0.160 C 
ATOM     23  C   UNL A   1     -10.271 206.861 110.446  0.00  0.00    +0.091 C 
ENDBRANCH  15  22
BRANCH  18  24
ATOM     24  O   UNL A   1     -13.298 205.063 115.973  0.00  0.00    -0.492 OA
BRANCH  24  25
ATOM     25  C   UNL A   1     -13.248 205.628 117.282  0.00  0.00    +0.226 C 
ATOM     26  C   UNL A   1     -14.367 206.650 117.403  0.00  0.00    +0.048 C 
ENDBRANCH  24  25
ENDBRANCH  18  24
ENDBRANCH   1  19
TORSDOF 7
ENDMDL
MODEL 9
REMARK minimizedAffinity -7.16771603
REMARK minimizedRMSD -1
REMARK  Name = CS55
REMARK  9 active torsions:
REMARK  status: ('A' for Active; 'I' for Inactive)
REMARK    1  A    between atoms: C_2  and  C_3
REMARK    2  A    between atoms: C_2  and  C_4
REMARK    3  A    between atoms: C_7  and  O_20
REMARK    4  A    between atoms: C_8  and  C_9
REMARK    5  A    between atoms: C_9  and  C_10
REMARK    6  A    between atoms: C_11  and  O_12
REMARK    7  A    between atoms: C_17  and  O_18
REMARK    8  A    between atoms: O_20  and  C_21
REMARK    9  A    between atoms: C_21  and  C_22
REMARK                            x       y       z     vdW  Elec       q    Type
REMARK                         _______ _______ _______ _____ _____    ______ ____
ROOT
ATOM      1  C   UNL A   1     -11.732 205.047 114.263  0.00  0.00    +0.084 C 
ENDROOT
BRANCH   1   2
ATOM      2  C   UNL A   1     -10.681 205.916 113.631  0.00  0.00    +0.080 A 
ATOM      3  C   UNL A   1     -10.691 206.387 112.335  0.00  0.00    +0.224 A 
ATOM      4  N   UNL A   1      -9.710 207.124 111.787  0.00  0.00    -0.179 NA
ATOM      5  C   UNL A   1      -8.670 207.417 112.561  0.00  0.00    +0.219 A 
ATOM      6  N   UNL A   1      -7.628 208.128 111.999  0.00  0.00    -0.327 N 
ATOM      7  N   UNL A   1      -8.535 207.026 113.825  0.00  0.00    -0.179 NA
ATOM      8  C   UNL A   1      -9.551 206.305 114.313  0.00  0.00    +0.224 A 
ATOM      9  H   UNL A   1      -7.666 208.019 110.992  0.00  0.00    +0.145 HD
ATOM     10  H   UNL A   1      -6.759 207.894 112.457  0.00  0.00    +0.145 HD
BRANCH   3  11
ATOM     11  O   UNL A   1     -11.706 206.150 111.457  0.00  0.00    -0.492 OA
ATOM     12  H   UNL A   1     -12.405 205.652 111.892  0.00  0.00    +0.294 HD
ENDBRANCH   3  11
BRANCH   8  13
ATOM     13  O   UNL A   1      -9.368 205.993 115.619  0.00  0.00    -0.492 OA
ATOM     14  H   UNL A   1      -8.501 206.405 115.779  0.00  0.00    +0.294 HD
ENDBRANCH   8  13
ENDBRANCH   1   2
BRANCH   1  19
ATOM     15  C   UNL A   1     -15.375 206.172 113.940  0.00  0.00    +0.018 A 
ATOM     16  C   UNL A   1     -15.536 206.933 115.098  0.00  0.00    +0.015 A 
ATOM     17  C   UNL A   1     -14.460 207.139 115.965  0.00  0.00    +0.046 A 
ATOM     18  C   UNL A   1     -13.210 206.570 115.696  0.00  0.00    +0.124 A 
ATOM     19  C   UNL A   1     -13.040 205.769 114.549  0.00  0.00    -0.000 A 
ATOM     20  C   UNL A   1     -14.129 205.597 113.670  0.00  0.00    +0.018 A 
BRANCH  15  22
ATOM     21  O   UNL A   1     -17.618 205.608 113.464  0.00  0.00    -0.292 OA
ATOM     22  C   UNL A   1     -16.542 206.003 113.021  0.00  0.00    +0.160 C 
ATOM     23  C   UNL A   1     -16.370 206.323 111.559  0.00  0.00    +0.091 C 
ENDBRANCH  15  22
BRANCH  18  24
ATOM     24  O   UNL A   1     -12.090 206.810 116.445  0.00  0.00    -0.492 OA
BRANCH  24  25
ATOM     25  C   UNL A   1     -12.113 206.404 117.812  0.00  0.00    +0.226 C 
ATOM     26  C   UNL A   1     -11.529 207.528 118.652  0.00  0.00    +0.048 C 
ENDBRANCH  24  25
ENDBRANCH  18  24
ENDBRANCH   1  19
TORSDOF 7
ENDMDL
