MODEL 1
REMARK minimizedAffinity -9.00097084
REMARK minimizedRMSD -1
REMARK  Name = CS58
REMARK  6 active torsions:
REMARK  status: ('A' for Active; 'I' for Inactive)
REMARK    1  A    between atoms: N_2  and  C_4
REMARK    2  A    between atoms: C_7  and  C_10
REMARK    3  A    between atoms: N_11  and  C_12
REMARK    4  A    between atoms: C_18  and  S_21
REMARK    5  A    between atoms: S_21  and  C_22
REMARK    6  A    between atoms: C_22  and  C_23
REMARK                            x       y       z     vdW  Elec       q    Type
REMARK                         _______ _______ _______ _____ _____    ______ ____
ROOT
ATOM      1  C   UNL A   1     -14.071 204.557 114.513  0.00  0.00    +0.169 A 
ATOM      2  N   UNL A   1     -13.618 204.861 115.804  0.00  0.00    -0.270 N 
ATOM      3  C   UNL A   1     -14.429 204.100 116.643  0.00  0.00    +0.197 A 
ATOM      4  N   UNL A   1     -15.344 203.476 115.939  0.00  0.00    -0.122 NA
ATOM      5  N   UNL A   1     -15.132 203.773 114.612  0.00  0.00    -0.128 NA
ENDROOT
BRANCH   1   9
ATOM      6  C   UNL A   1     -12.414 206.266 110.940  0.00  0.00    +0.075 A 
ATOM      7  C   UNL A   1     -11.559 205.795 111.941  0.00  0.00    +0.029 A 
ATOM      8  C   UNL A   1     -12.097 205.139 113.054  0.00  0.00    +0.013 A 
ATOM      9  C   UNL A   1     -13.488 205.025 113.237  0.00  0.00    +0.020 A 
ATOM     10  C   UNL A   1     -14.326 205.450 112.187  0.00  0.00    +0.013 A 
ATOM     11  C   UNL A   1     -13.797 206.063 111.043  0.00  0.00    +0.029 A 
BRANCH   6  13
ATOM     12  O   UNL A   1     -10.661 206.794 109.513  0.00  0.00    -0.173 OA
ATOM     13  N   UNL A   1     -11.854 206.989 109.792  0.00  0.00    -0.187 N 
ATOM     14  O   UNL A   1     -12.601 207.763 109.174  0.00  0.00    -0.777 OA
ENDBRANCH   6  13
ENDBRANCH   1   9
BRANCH   2  15
ATOM     15  C   UNL A   1     -12.588 205.786 116.169  0.00  0.00    +0.051 A 
ATOM     16  C   UNL A   1     -12.800 207.169 116.043  0.00  0.00    +0.026 A 
ATOM     17  C   UNL A   1     -11.769 208.073 116.289  0.00  0.00    +0.002 A 
ATOM     18  C   UNL A   1     -10.539 207.616 116.752  0.00  0.00    +0.000 A 
ATOM     19  C   UNL A   1     -10.331 206.249 116.933  0.00  0.00    +0.002 A 
ATOM     20  C   UNL A   1     -11.338 205.337 116.618  0.00  0.00    +0.026 A 
ENDBRANCH   2  15
BRANCH   3  21
ATOM     21  S   UNL A   1     -14.420 204.234 118.376  0.00  0.00    -0.076 S 
BRANCH  21  22
ATOM     22  C   UNL A   1     -15.112 202.686 118.982  0.00  0.00    +0.173 C 
BRANCH  22  23
ATOM     23  C   UNL A   1     -16.207 202.806 120.032  0.00  0.00    +0.226 C 
ATOM     24  O   UNL A   1     -15.996 203.224 121.174  0.00  0.00    -0.275 OA
ATOM     25  N   UNL A   1     -17.493 202.442 119.612  0.00  0.00    -0.296 N 
ATOM     26  C   UNL A   1     -17.830 201.852 118.308  0.00  0.00    +0.136 C 
ATOM     27  C   UNL A   1     -19.200 202.334 117.810  0.00  0.00    +0.178 C 
ATOM     28  O   UNL A   1     -20.219 202.133 118.798  0.00  0.00    -0.377 OA
ATOM     29  C   UNL A   1     -19.898 202.844 120.005  0.00  0.00    +0.178 C 
ATOM     30  C   UNL A   1     -18.575 202.348 120.596  0.00  0.00    +0.136 C 
ENDBRANCH  22  23
ENDBRANCH  21  22
ENDBRANCH   3  21
TORSDOF 6
ENDMDL
MODEL 2
REMARK minimizedAffinity -8.71272373
REMARK minimizedRMSD -1
REMARK  Name = CS58
REMARK  6 active torsions:
REMARK  status: ('A' for Active; 'I' for Inactive)
REMARK    1  A    between atoms: N_2  and  C_4
REMARK    2  A    between atoms: C_7  and  C_10
REMARK    3  A    between atoms: N_11  and  C_12
REMARK    4  A    between atoms: C_18  and  S_21
REMARK    5  A    between atoms: S_21  and  C_22
REMARK    6  A    between atoms: C_22  and  C_23
REMARK                            x       y       z     vdW  Elec       q    Type
REMARK                         _______ _______ _______ _____ _____    ______ ____
ROOT
ATOM      1  C   UNL A   1     -14.732 204.810 117.480  0.00  0.00    +0.169 A 
ATOM      2  N   UNL A   1     -14.512 205.587 116.334  0.00  0.00    -0.270 N 
ATOM      3  C   UNL A   1     -13.876 206.732 116.810  0.00  0.00    +0.197 A 
ATOM      4  N   UNL A   1     -13.809 206.697 118.121  0.00  0.00    -0.122 NA
ATOM      5  N   UNL A   1     -14.357 205.506 118.540  0.00  0.00    -0.128 NA
ENDROOT
BRANCH   1   9
ATOM      6  C   UNL A   1     -16.247 200.823 117.975  0.00  0.00    +0.075 A 
ATOM      7  C   UNL A   1     -17.105 201.914 118.147  0.00  0.00    +0.029 A 
ATOM      8  C   UNL A   1     -16.638 203.206 117.878  0.00  0.00    +0.013 A 
ATOM      9  C   UNL A   1     -15.296 203.443 117.528  0.00  0.00    +0.020 A 
ATOM     10  C   UNL A   1     -14.469 202.326 117.300  0.00  0.00    +0.013 A 
ATOM     11  C   UNL A   1     -14.938 201.024 117.517  0.00  0.00    +0.029 A 
BRANCH   6  13
ATOM     12  O   UNL A   1     -16.600 198.596 117.427  0.00  0.00    -0.173 OA
ATOM     13  N   UNL A   1     -16.722 199.473 118.296  0.00  0.00    -0.187 N 
ATOM     14  O   UNL A   1     -17.230 199.287 119.412  0.00  0.00    -0.777 OA
ENDBRANCH   6  13
ENDBRANCH   1   9
BRANCH   2  15
ATOM     15  C   UNL A   1     -14.902 205.285 114.990  0.00  0.00    +0.051 A 
ATOM     16  C   UNL A   1     -16.072 205.843 114.450  0.00  0.00    +0.026 A 
ATOM     17  C   UNL A   1     -16.521 205.470 113.185  0.00  0.00    +0.002 A 
ATOM     18  C   UNL A   1     -15.761 204.606 112.405  0.00  0.00    +0.000 A 
ATOM     19  C   UNL A   1     -14.568 204.085 112.907  0.00  0.00    +0.002 A 
ATOM     20  C   UNL A   1     -14.154 204.399 114.201  0.00  0.00    +0.026 A 
ENDBRANCH   2  15
BRANCH   3  21
ATOM     21  S   UNL A   1     -13.536 208.125 115.828  0.00  0.00    -0.076 S 
BRANCH  21  22
ATOM     22  C   UNL A   1     -11.740 208.211 115.722  0.00  0.00    +0.173 C 
BRANCH  22  23
ATOM     23  C   UNL A   1     -11.101 207.486 114.547  0.00  0.00    +0.226 C 
ATOM     24  O   UNL A   1     -11.754 206.824 113.735  0.00  0.00    -0.275 OA
ATOM     25  N   UNL A   1      -9.716 207.644 114.417  0.00  0.00    -0.296 N 
ATOM     26  C   UNL A   1      -8.841 208.335 115.376  0.00  0.00    +0.136 C 
ATOM     27  C   UNL A   1      -7.696 209.069 114.664  0.00  0.00    +0.178 C 
ATOM     28  O   UNL A   1      -6.982 208.196 113.780  0.00  0.00    -0.377 OA
ATOM     29  C   UNL A   1      -7.864 207.656 112.782  0.00  0.00    +0.178 C 
ATOM     30  C   UNL A   1      -8.987 206.840 113.430  0.00  0.00    +0.136 C 
ENDBRANCH  22  23
ENDBRANCH  21  22
ENDBRANCH   3  21
TORSDOF 6
ENDMDL
MODEL 3
REMARK minimizedAffinity -8.48253918
REMARK minimizedRMSD -1
REMARK  Name = CS58
REMARK  6 active torsions:
REMARK  status: ('A' for Active; 'I' for Inactive)
REMARK    1  A    between atoms: N_2  and  C_4
REMARK    2  A    between atoms: C_7  and  C_10
REMARK    3  A    between atoms: N_11  and  C_12
REMARK    4  A    between atoms: C_18  and  S_21
REMARK    5  A    between atoms: S_21  and  C_22
REMARK    6  A    between atoms: C_22  and  C_23
REMARK                            x       y       z     vdW  Elec       q    Type
REMARK                         _______ _______ _______ _____ _____    ______ ____
ROOT
ATOM      1  C   UNL A   1     -12.263 205.255 116.220  0.00  0.00    +0.169 A 
ATOM      2  N   UNL A   1     -13.524 204.836 115.773  0.00  0.00    -0.270 N 
ATOM      3  C   UNL A   1     -13.997 204.014 116.795  0.00  0.00    +0.197 A 
ATOM      4  N   UNL A   1     -13.076 203.871 117.719  0.00  0.00    -0.122 NA
ATOM      5  N   UNL A   1     -11.988 204.632 117.354  0.00  0.00    -0.128 NA
ENDROOT
BRANCH   1   9
ATOM      6  C   UNL A   1      -9.393 207.971 114.542  0.00  0.00    +0.075 A 
ATOM      7  C   UNL A   1      -9.553 206.701 113.979  0.00  0.00    +0.029 A 
ATOM      8  C   UNL A   1     -10.564 205.860 114.456  0.00  0.00    +0.013 A 
ATOM      9  C   UNL A   1     -11.365 206.224 115.555  0.00  0.00    +0.020 A 
ATOM     10  C   UNL A   1     -11.227 207.530 116.064  0.00  0.00    +0.013 A 
ATOM     11  C   UNL A   1     -10.252 208.402 115.562  0.00  0.00    +0.029 A 
BRANCH   6  13
ATOM     12  O   UNL A   1      -7.924 208.699 112.898  0.00  0.00    -0.173 OA
ATOM     13  N   UNL A   1      -8.307 208.839 114.070  0.00  0.00    -0.187 N 
ATOM     14  O   UNL A   1      -7.826 209.653 114.872  0.00  0.00    -0.777 OA
ENDBRANCH   6  13
ENDBRANCH   1   9
BRANCH   2  15
ATOM     15  C   UNL A   1     -14.151 205.147 114.524  0.00  0.00    +0.051 A 
ATOM     16  C   UNL A   1     -14.986 206.270 114.412  0.00  0.00    +0.026 A 
ATOM     17  C   UNL A   1     -15.689 206.519 113.234  0.00  0.00    +0.002 A 
ATOM     18  C   UNL A   1     -15.499 205.703 112.125  0.00  0.00    +0.000 A 
ATOM     19  C   UNL A   1     -14.630 204.614 112.206  0.00  0.00    +0.002 A 
ATOM     20  C   UNL A   1     -13.982 204.320 113.405  0.00  0.00    +0.026 A 
ENDBRANCH   2  15
BRANCH   3  21
ATOM     21  S   UNL A   1     -15.453 203.072 116.678  0.00  0.00    -0.076 S 
BRANCH  21  22
ATOM     22  C   UNL A   1     -15.440 201.987 118.115  0.00  0.00    +0.173 C 
BRANCH  22  23
ATOM     23  C   UNL A   1     -16.030 202.560 119.396  0.00  0.00    +0.226 C 
ATOM     24  O   UNL A   1     -15.352 203.168 120.230  0.00  0.00    -0.275 OA
ATOM     25  N   UNL A   1     -17.409 202.387 119.559  0.00  0.00    -0.296 N 
ATOM     26  C   UNL A   1     -18.283 201.606 118.671  0.00  0.00    +0.136 C 
ATOM     27  C   UNL A   1     -19.677 202.239 118.554  0.00  0.00    +0.178 C 
ATOM     28  O   UNL A   1     -20.255 202.477 119.843  0.00  0.00    -0.377 OA
ATOM     29  C   UNL A   1     -19.421 203.356 120.615  0.00  0.00    +0.178 C 
ATOM     30  C   UNL A   1     -18.036 202.740 120.836  0.00  0.00    +0.136 C 
ENDBRANCH  22  23
ENDBRANCH  21  22
ENDBRANCH   3  21
TORSDOF 6
ENDMDL
MODEL 4
REMARK minimizedAffinity -8.28266525
REMARK minimizedRMSD -1
REMARK  Name = CS58
REMARK  6 active torsions:
REMARK  status: ('A' for Active; 'I' for Inactive)
REMARK    1  A    between atoms: N_2  and  C_4
REMARK    2  A    between atoms: C_7  and  C_10
REMARK    3  A    between atoms: N_11  and  C_12
REMARK    4  A    between atoms: C_18  and  S_21
REMARK    5  A    between atoms: S_21  and  C_22
REMARK    6  A    between atoms: C_22  and  C_23
REMARK                            x       y       z     vdW  Elec       q    Type
REMARK                         _______ _______ _______ _____ _____    ______ ____
ROOT
ATOM      1  C   UNL A   1     -12.162 205.465 115.474  0.00  0.00    +0.169 A 
ATOM      2  N   UNL A   1     -12.128 205.855 114.129  0.00  0.00    -0.270 N 
ATOM      3  C   UNL A   1     -10.841 206.361 113.949  0.00  0.00    +0.197 A 
ATOM      4  N   UNL A   1     -10.198 206.368 115.093  0.00  0.00    -0.122 NA
ATOM      5  N   UNL A   1     -11.026 205.824 116.048  0.00  0.00    -0.128 NA
ENDROOT
BRANCH   1   9
ATOM      6  C   UNL A   1     -15.424 203.252 117.176  0.00  0.00    +0.075 A 
ATOM      7  C   UNL A   1     -14.109 202.867 117.454  0.00  0.00    +0.029 A 
ATOM      8  C   UNL A   1     -13.049 203.654 116.990  0.00  0.00    +0.013 A 
ATOM      9  C   UNL A   1     -13.271 204.774 116.167  0.00  0.00    +0.020 A 
ATOM     10  C   UNL A   1     -14.603 205.178 115.954  0.00  0.00    +0.013 A 
ATOM     11  C   UNL A   1     -15.676 204.428 116.456  0.00  0.00    +0.029 A 
BRANCH   6  13
ATOM     12  O   UNL A   1     -17.690 202.831 117.459  0.00  0.00    -0.173 OA
ATOM     13  N   UNL A   1     -16.536 202.407 117.628  0.00  0.00    -0.187 N 
ATOM     14  O   UNL A   1     -16.259 201.324 118.164  0.00  0.00    -0.777 OA
ENDBRANCH   6  13
ENDBRANCH   1   9
BRANCH   2  15
ATOM     15  C   UNL A   1     -13.195 205.793 113.177  0.00  0.00    +0.051 A 
ATOM     16  C   UNL A   1     -14.171 206.801 113.140  0.00  0.00    +0.026 A 
ATOM     17  C   UNL A   1     -15.274 206.694 112.295  0.00  0.00    +0.002 A 
ATOM     18  C   UNL A   1     -15.371 205.625 111.411  0.00  0.00    +0.000 A 
ATOM     19  C   UNL A   1     -14.381 204.644 111.398  0.00  0.00    +0.002 A 
ATOM     20  C   UNL A   1     -13.314 204.710 112.294  0.00  0.00    +0.026 A 
ENDBRANCH   2  15
BRANCH   3  21
ATOM     21  S   UNL A   1     -10.313 207.159 112.498  0.00  0.00    -0.076 S 
BRANCH  21  22
ATOM     22  C   UNL A   1      -9.128 208.403 113.038  0.00  0.00    +0.173 C 
BRANCH  22  23
ATOM     23  C   UNL A   1      -7.658 208.036 112.898  0.00  0.00    +0.226 C 
ATOM     24  O   UNL A   1      -7.202 207.471 111.900  0.00  0.00    -0.275 OA
ATOM     25  N   UNL A   1      -6.834 208.413 113.966  0.00  0.00    -0.296 N 
ATOM     26  C   UNL A   1      -7.293 209.008 115.230  0.00  0.00    +0.136 C 
ATOM     27  C   UNL A   1      -6.281 210.029 115.770  0.00  0.00    +0.178 C 
ATOM     28  O   UNL A   1      -4.965 209.469 115.858  0.00  0.00    -0.377 OA
ATOM     29  C   UNL A   1      -4.518 209.028 114.565  0.00  0.00    +0.178 C 
ATOM     30  C   UNL A   1      -5.445 207.944 114.007  0.00  0.00    +0.136 C 
ENDBRANCH  22  23
ENDBRANCH  21  22
ENDBRANCH   3  21
TORSDOF 6
ENDMDL
MODEL 5
REMARK minimizedAffinity -8.14954662
REMARK minimizedRMSD -1
REMARK  Name = CS58
REMARK  6 active torsions:
REMARK  status: ('A' for Active; 'I' for Inactive)
REMARK    1  A    between atoms: N_2  and  C_4
REMARK    2  A    between atoms: C_7  and  C_10
REMARK    3  A    between atoms: N_11  and  C_12
REMARK    4  A    between atoms: C_18  and  S_21
REMARK    5  A    between atoms: S_21  and  C_22
REMARK    6  A    between atoms: C_22  and  C_23
REMARK                            x       y       z     vdW  Elec       q    Type
REMARK                         _______ _______ _______ _____ _____    ______ ____
ROOT
ATOM      1  C   UNL A   1     -13.087 204.676 116.396  0.00  0.00    +0.169 A 
ATOM      2  N   UNL A   1     -12.986 205.244 115.119  0.00  0.00    -0.270 N 
ATOM      3  C   UNL A   1     -11.730 205.848 115.108  0.00  0.00    +0.197 A 
ATOM      4  N   UNL A   1     -11.170 205.742 116.290  0.00  0.00    -0.122 NA
ATOM      5  N   UNL A   1     -12.023 205.025 117.099  0.00  0.00    -0.128 NA
ENDROOT
BRANCH   1   9
ATOM      6  C   UNL A   1     -16.348 202.119 117.518  0.00  0.00    +0.075 A 
ATOM      7  C   UNL A   1     -15.035 201.647 117.614  0.00  0.00    +0.029 A 
ATOM      8  C   UNL A   1     -13.970 202.516 117.354  0.00  0.00    +0.013 A 
ATOM      9  C   UNL A   1     -14.190 203.832 116.905  0.00  0.00    +0.020 A 
ATOM     10  C   UNL A   1     -15.517 204.303 116.876  0.00  0.00    +0.013 A 
ATOM     11  C   UNL A   1     -16.591 203.457 117.183  0.00  0.00    +0.029 A 
BRANCH   6  13
ATOM     12  O   UNL A   1     -18.605 201.580 117.439  0.00  0.00    -0.173 OA
ATOM     13  N   UNL A   1     -17.466 201.197 117.751  0.00  0.00    -0.187 N 
ATOM     14  O   UNL A   1     -17.212 200.094 118.257  0.00  0.00    -0.777 OA
ENDBRANCH   6  13
ENDBRANCH   1   9
BRANCH   2  15
ATOM     15  C   UNL A   1     -13.976 205.242 114.085  0.00  0.00    +0.051 A 
ATOM     16  C   UNL A   1     -14.096 204.142 113.221  0.00  0.00    +0.026 A 
ATOM     17  C   UNL A   1     -14.980 204.176 112.143  0.00  0.00    +0.002 A 
ATOM     18  C   UNL A   1     -15.820 205.270 111.967  0.00  0.00    +0.000 A 
ATOM     19  C   UNL A   1     -15.750 206.347 112.850  0.00  0.00    +0.002 A 
ATOM     20  C   UNL A   1     -14.816 206.348 113.886  0.00  0.00    +0.026 A 
ENDBRANCH   2  15
BRANCH   3  21
ATOM     21  S   UNL A   1     -11.159 206.863 113.818  0.00  0.00    -0.076 S 
BRANCH  21  22
ATOM     22  C   UNL A   1      -9.380 206.594 113.745  0.00  0.00    +0.173 C 
BRANCH  22  23
ATOM     23  C   UNL A   1      -8.514 207.630 114.445  0.00  0.00    +0.226 C 
ATOM     24  O   UNL A   1      -8.898 208.265 115.431  0.00  0.00    -0.275 OA
ATOM     25  N   UNL A   1      -7.227 207.800 113.921  0.00  0.00    -0.296 N 
ATOM     26  C   UNL A   1      -6.709 207.159 112.703  0.00  0.00    +0.136 C 
ATOM     27  C   UNL A   1      -5.217 206.823 112.835  0.00  0.00    +0.178 C 
ATOM     28  O   UNL A   1      -4.454 207.967 113.235  0.00  0.00    -0.377 OA
ATOM     29  C   UNL A   1      -4.920 208.467 114.499  0.00  0.00    +0.178 C 
ATOM     30  C   UNL A   1      -6.387 208.898 114.408  0.00  0.00    +0.136 C 
ENDBRANCH  22  23
ENDBRANCH  21  22
ENDBRANCH   3  21
TORSDOF 6
ENDMDL
MODEL 6
REMARK minimizedAffinity -8.13778591
REMARK minimizedRMSD -1
REMARK  Name = CS58
REMARK  6 active torsions:
REMARK  status: ('A' for Active; 'I' for Inactive)
REMARK    1  A    between atoms: N_2  and  C_4
REMARK    2  A    between atoms: C_7  and  C_10
REMARK    3  A    between atoms: N_11  and  C_12
REMARK    4  A    between atoms: C_18  and  S_21
REMARK    5  A    between atoms: S_21  and  C_22
REMARK    6  A    between atoms: C_22  and  C_23
REMARK                            x       y       z     vdW  Elec       q    Type
REMARK                         _______ _______ _______ _____ _____    ______ ____
ROOT
ATOM      1  C   UNL A   1     -13.699 204.343 118.381  0.00  0.00    +0.169 A 
ATOM      2  N   UNL A   1     -13.409 204.956 117.154  0.00  0.00    -0.270 N 
ATOM      3  C   UNL A   1     -12.165 205.552 117.352  0.00  0.00    +0.197 A 
ATOM      4  N   UNL A   1     -11.787 205.400 118.600  0.00  0.00    -0.122 NA
ATOM      5  N   UNL A   1     -12.750 204.659 119.246  0.00  0.00    -0.128 NA
ENDROOT
BRANCH   1   9
ATOM      6  C   UNL A   1     -16.841 201.595 119.387  0.00  0.00    +0.075 A 
ATOM      7  C   UNL A   1     -16.464 202.580 120.306  0.00  0.00    +0.029 A 
ATOM      8  C   UNL A   1     -15.518 203.542 119.935  0.00  0.00    +0.013 A 
ATOM      9  C   UNL A   1     -14.866 203.487 118.689  0.00  0.00    +0.020 A 
ATOM     10  C   UNL A   1     -15.307 202.527 117.758  0.00  0.00    +0.013 A 
ATOM     11  C   UNL A   1     -16.290 201.588 118.099  0.00  0.00    +0.029 A 
BRANCH   6  13
ATOM     12  O   UNL A   1     -18.922 200.933 120.175  0.00  0.00    -0.173 OA
ATOM     13  N   UNL A   1     -17.802 200.562 119.789  0.00  0.00    -0.187 N 
ATOM     14  O   UNL A   1     -17.438 199.378 119.733  0.00  0.00    -0.777 OA
ENDBRANCH   6  13
ENDBRANCH   1   9
BRANCH   2  15
ATOM     15  C   UNL A   1     -14.236 204.999 115.986  0.00  0.00    +0.051 A 
ATOM     16  C   UNL A   1     -14.065 204.052 114.963  0.00  0.00    +0.026 A 
ATOM     17  C   UNL A   1     -14.786 204.150 113.774  0.00  0.00    +0.002 A 
ATOM     18  C   UNL A   1     -15.752 205.140 113.627  0.00  0.00    +0.000 A 
ATOM     19  C   UNL A   1     -15.970 206.055 114.657  0.00  0.00    +0.002 A 
ATOM     20  C   UNL A   1     -15.199 206.004 115.817  0.00  0.00    +0.026 A 
ENDBRANCH   2  15
BRANCH   3  21
ATOM     21  S   UNL A   1     -11.409 206.611 116.200  0.00  0.00    -0.076 S 
BRANCH  21  22
ATOM     22  C   UNL A   1     -10.608 205.528 115.005  0.00  0.00    +0.173 C 
BRANCH  22  23
ATOM     23  C   UNL A   1      -9.908 206.213 113.840  0.00  0.00    +0.226 C 
ATOM     24  O   UNL A   1      -8.701 206.469 113.843  0.00  0.00    -0.275 OA
ATOM     25  N   UNL A   1     -10.716 206.508 112.735  0.00  0.00    -0.296 N 
ATOM     26  C   UNL A   1     -12.173 206.323 112.669  0.00  0.00    +0.136 C 
ATOM     27  C   UNL A   1     -12.623 205.904 111.262  0.00  0.00    +0.178 C 
ATOM     28  O   UNL A   1     -12.125 206.801 110.262  0.00  0.00    -0.377 OA
ATOM     29  C   UNL A   1     -10.689 206.836 110.287  0.00  0.00    +0.178 C 
ATOM     30  C   UNL A   1     -10.178 207.327 111.645  0.00  0.00    +0.136 C 
ENDBRANCH  22  23
ENDBRANCH  21  22
ENDBRANCH   3  21
TORSDOF 6
ENDMDL
MODEL 7
REMARK minimizedAffinity -8.10955524
REMARK minimizedRMSD -1
REMARK  Name = CS58
REMARK  6 active torsions:
REMARK  status: ('A' for Active; 'I' for Inactive)
REMARK    1  A    between atoms: N_2  and  C_4
REMARK    2  A    between atoms: C_7  and  C_10
REMARK    3  A    between atoms: N_11  and  C_12
REMARK    4  A    between atoms: C_18  and  S_21
REMARK    5  A    between atoms: S_21  and  C_22
REMARK    6  A    between atoms: C_22  and  C_23
REMARK                            x       y       z     vdW  Elec       q    Type
REMARK                         _______ _______ _______ _____ _____    ______ ____
ROOT
ATOM      1  C   UNL A   1     -14.836 203.873 115.722  0.00  0.00    +0.169 A 
ATOM      2  N   UNL A   1     -13.950 204.943 115.910  0.00  0.00    -0.270 N 
ATOM      3  C   UNL A   1     -13.795 205.491 114.638  0.00  0.00    +0.197 A 
ATOM      4  N   UNL A   1     -14.441 204.766 113.755  0.00  0.00    -0.122 NA
ATOM      5  N   UNL A   1     -15.077 203.748 114.428  0.00  0.00    -0.128 NA
ENDROOT
BRANCH   1   9
ATOM      6  C   UNL A   1     -16.712 201.190 118.498  0.00  0.00    +0.075 A 
ATOM      7  C   UNL A   1     -15.446 200.884 117.991  0.00  0.00    +0.029 A 
ATOM      8  C   UNL A   1     -14.789 201.811 117.174  0.00  0.00    +0.013 A 
ATOM      9  C   UNL A   1     -15.413 203.006 116.772  0.00  0.00    +0.020 A 
ATOM     10  C   UNL A   1     -16.661 203.321 117.345  0.00  0.00    +0.013 A 
ATOM     11  C   UNL A   1     -17.308 202.424 118.206  0.00  0.00    +0.029 A 
BRANCH   6  13
ATOM     12  O   UNL A   1     -18.333 200.609 120.056  0.00  0.00    -0.173 OA
ATOM     13  N   UNL A   1     -17.419 200.202 119.322  0.00  0.00    -0.187 N 
ATOM     14  O   UNL A   1     -17.054 199.019 119.249  0.00  0.00    -0.777 OA
ENDBRANCH   6  13
ENDBRANCH   1   9
BRANCH   2  15
ATOM     15  C   UNL A   1     -13.314 205.342 117.130  0.00  0.00    +0.051 A 
ATOM     16  C   UNL A   1     -13.860 206.376 117.908  0.00  0.00    +0.026 A 
ATOM     17  C   UNL A   1     -13.191 206.847 119.036  0.00  0.00    +0.002 A 
ATOM     18  C   UNL A   1     -12.016 206.232 119.454  0.00  0.00    +0.000 A 
ATOM     19  C   UNL A   1     -11.491 205.168 118.721  0.00  0.00    +0.002 A 
ATOM     20  C   UNL A   1     -12.119 204.743 117.551  0.00  0.00    +0.026 A 
ENDBRANCH   2  15
BRANCH   3  21
ATOM     21  S   UNL A   1     -12.650 206.743 114.261  0.00  0.00    -0.076 S 
BRANCH  21  22
ATOM     22  C   UNL A   1     -11.400 205.956 113.230  0.00  0.00    +0.173 C 
BRANCH  22  23
ATOM     23  C   UNL A   1     -10.348 206.877 112.628  0.00  0.00    +0.226 C 
ATOM     24  O   UNL A   1     -10.450 207.356 111.495  0.00  0.00    -0.275 OA
ATOM     25  N   UNL A   1      -9.263 207.183 113.458  0.00  0.00    -0.296 N 
ATOM     26  C   UNL A   1      -9.008 206.596 114.782  0.00  0.00    +0.136 C 
ATOM     27  C   UNL A   1      -8.371 207.617 115.735  0.00  0.00    +0.178 C 
ATOM     28  O   UNL A   1      -7.208 208.223 115.157  0.00  0.00    -0.377 OA
ATOM     29  C   UNL A   1      -7.547 208.895 113.932  0.00  0.00    +0.178 C 
ATOM     30  C   UNL A   1      -8.114 207.909 112.907  0.00  0.00    +0.136 C 
ENDBRANCH  22  23
ENDBRANCH  21  22
ENDBRANCH   3  21
TORSDOF 6
ENDMDL
MODEL 8
REMARK minimizedAffinity -7.95390224
REMARK minimizedRMSD -1
REMARK  Name = CS58
REMARK  6 active torsions:
REMARK  status: ('A' for Active; 'I' for Inactive)
REMARK    1  A    between atoms: N_2  and  C_4
REMARK    2  A    between atoms: C_7  and  C_10
REMARK    3  A    between atoms: N_11  and  C_12
REMARK    4  A    between atoms: C_18  and  S_21
REMARK    5  A    between atoms: S_21  and  C_22
REMARK    6  A    between atoms: C_22  and  C_23
REMARK                            x       y       z     vdW  Elec       q    Type
REMARK                         _______ _______ _______ _____ _____    ______ ____
ROOT
ATOM      1  C   UNL A   1     -14.012 204.378 115.649  0.00  0.00    +0.169 A 
ATOM      2  N   UNL A   1     -13.948 204.405 117.048  0.00  0.00    -0.270 N 
ATOM      3  C   UNL A   1     -14.914 203.487 117.457  0.00  0.00    +0.197 A 
ATOM      4  N   UNL A   1     -15.563 203.025 116.414  0.00  0.00    -0.122 NA
ATOM      5  N   UNL A   1     -15.012 203.591 115.287  0.00  0.00    -0.128 NA
ENDROOT
BRANCH   1   9
ATOM      6  C   UNL A   1     -11.477 206.178 112.688  0.00  0.00    +0.075 A 
ATOM      7  C   UNL A   1     -12.839 206.494 112.715  0.00  0.00    +0.029 A 
ATOM      8  C   UNL A   1     -13.641 205.993 113.747  0.00  0.00    +0.013 A 
ATOM      9  C   UNL A   1     -13.130 205.101 114.707  0.00  0.00    +0.020 A 
ATOM     10  C   UNL A   1     -11.744 204.848 114.697  0.00  0.00    +0.013 A 
ATOM     11  C   UNL A   1     -10.919 205.384 113.699  0.00  0.00    +0.029 A 
BRANCH   6  13
ATOM     12  O   UNL A   1     -11.024 206.441 110.427  0.00  0.00    -0.173 OA
ATOM     13  N   UNL A   1     -10.643 206.670 111.585  0.00  0.00    -0.187 N 
ATOM     14  O   UNL A   1      -9.599 207.274 111.873  0.00  0.00    -0.777 OA
ENDBRANCH   6  13
ENDBRANCH   1   9
BRANCH   2  15
ATOM     15  C   UNL A   1     -13.113 205.233 117.865  0.00  0.00    +0.051 A 
ATOM     16  C   UNL A   1     -11.913 204.728 118.390  0.00  0.00    +0.026 A 
ATOM     17  C   UNL A   1     -11.148 205.486 119.275  0.00  0.00    +0.002 A 
ATOM     18  C   UNL A   1     -11.523 206.791 119.576  0.00  0.00    +0.000 A 
ATOM     19  C   UNL A   1     -12.685 207.325 119.018  0.00  0.00    +0.002 A 
ATOM     20  C   UNL A   1     -13.490 206.544 118.191  0.00  0.00    +0.026 A 
ENDBRANCH   2  15
BRANCH   3  21
ATOM     21  S   UNL A   1     -15.388 203.257 119.113  0.00  0.00    -0.076 S 
BRANCH  21  22
ATOM     22  C   UNL A   1     -16.568 201.897 119.092  0.00  0.00    +0.173 C 
BRANCH  22  23
ATOM     23  C   UNL A   1     -18.030 202.279 118.914  0.00  0.00    +0.226 C 
ATOM     24  O   UNL A   1     -18.602 202.243 117.821  0.00  0.00    -0.275 OA
ATOM     25  N   UNL A   1     -18.708 202.644 120.083  0.00  0.00    -0.296 N 
ATOM     26  C   UNL A   1     -18.096 202.803 121.411  0.00  0.00    +0.136 C 
ATOM     27  C   UNL A   1     -19.055 202.365 122.527  0.00  0.00    +0.178 C 
ATOM     28  O   UNL A   1     -20.327 203.015 122.413  0.00  0.00    -0.377 OA
ATOM     29  C   UNL A   1     -20.936 202.712 121.147  0.00  0.00    +0.178 C 
ATOM     30  C   UNL A   1     -20.061 203.202 119.989  0.00  0.00    +0.136 C 
ENDBRANCH  22  23
ENDBRANCH  21  22
ENDBRANCH   3  21
TORSDOF 6
ENDMDL
MODEL 9
REMARK minimizedAffinity -7.47154999
REMARK minimizedRMSD -1
REMARK  Name = CS58
REMARK  6 active torsions:
REMARK  status: ('A' for Active; 'I' for Inactive)
REMARK    1  A    between atoms: N_2  and  C_4
REMARK    2  A    between atoms: C_7  and  C_10
REMARK    3  A    between atoms: N_11  and  C_12
REMARK    4  A    between atoms: C_18  and  S_21
REMARK    5  A    between atoms: S_21  and  C_22
REMARK    6  A    between atoms: C_22  and  C_23
REMARK                            x       y       z     vdW  Elec       q    Type
REMARK                         _______ _______ _______ _____ _____    ______ ____
ROOT
ATOM      1  C   UNL A   1     -13.406 207.035 117.572  0.00  0.00    +0.169 A 
ATOM      2  N   UNL A   1     -12.012 206.961 117.450  0.00  0.00    -0.270 N 
ATOM      3  C   UNL A   1     -11.539 207.217 118.736  0.00  0.00    +0.197 A 
ATOM      4  N   UNL A   1     -12.540 207.512 119.532  0.00  0.00    -0.122 NA
ATOM      5  N   UNL A   1     -13.703 207.414 118.804  0.00  0.00    -0.128 NA
ENDROOT
BRANCH   1   9
ATOM      6  C   UNL A   1     -16.016 206.089 114.296  0.00  0.00    +0.075 A 
ATOM      7  C   UNL A   1     -15.842 205.164 115.330  0.00  0.00    +0.029 A 
ATOM      8  C   UNL A   1     -15.079 205.517 116.449  0.00  0.00    +0.013 A 
ATOM      9  C   UNL A   1     -14.403 206.749 116.518  0.00  0.00    +0.020 A 
ATOM     10  C   UNL A   1     -14.644 207.688 115.496  0.00  0.00    +0.013 A 
ATOM     11  C   UNL A   1     -15.447 207.366 114.393  0.00  0.00    +0.029 A 
BRANCH   6  13
ATOM     12  O   UNL A   1     -16.568 204.585 112.617  0.00  0.00    -0.173 OA
ATOM     13  N   UNL A   1     -16.781 205.706 113.105  0.00  0.00    -0.187 N 
ATOM     14  O   UNL A   1     -17.587 206.528 112.645  0.00  0.00    -0.777 OA
ENDBRANCH   6  13
ENDBRANCH   1   9
BRANCH   2  15
ATOM     15  C   UNL A   1     -11.254 206.728 116.258  0.00  0.00    +0.051 A 
ATOM     16  C   UNL A   1     -10.735 207.809 115.526  0.00  0.00    +0.026 A 
ATOM     17  C   UNL A   1     -10.092 207.600 114.308  0.00  0.00    +0.002 A 
ATOM     18  C   UNL A   1      -9.878 206.305 113.848  0.00  0.00    +0.000 A 
ATOM     19  C   UNL A   1     -10.340 205.219 114.591  0.00  0.00    +0.002 A 
ATOM     20  C   UNL A   1     -11.048 205.428 115.775  0.00  0.00    +0.026 A 
ENDBRANCH   2  15
BRANCH   3  21
ATOM     21  S   UNL A   1      -9.857 207.430 119.121  0.00  0.00    -0.076 S 
BRANCH  21  22
ATOM     22  C   UNL A   1      -9.228 205.777 119.459  0.00  0.00    +0.173 C 
BRANCH  22  23
ATOM     23  C   UNL A   1      -7.816 205.484 118.974  0.00  0.00    +0.226 C 
ATOM     24  O   UNL A   1      -7.236 206.188 118.142  0.00  0.00    -0.275 OA
ATOM     25  N   UNL A   1      -7.190 204.377 119.560  0.00  0.00    -0.296 N 
ATOM     26  C   UNL A   1      -7.825 203.430 120.489  0.00  0.00    +0.136 C 
ATOM     27  C   UNL A   1      -6.831 202.931 121.547  0.00  0.00    +0.178 C 
ATOM     28  O   UNL A   1      -5.638 202.413 120.945  0.00  0.00    -0.377 OA
ATOM     29  C   UNL A   1      -4.991 203.425 120.157  0.00  0.00    +0.178 C 
ATOM     30  C   UNL A   1      -5.907 203.907 119.028  0.00  0.00    +0.136 C 
ENDBRANCH  22  23
ENDBRANCH  21  22
ENDBRANCH   3  21
TORSDOF 6
ENDMDL
