MODEL 1
REMARK minimizedAffinity -7.79154921
REMARK minimizedRMSD -1
REMARK  Name = CS59
REMARK  11 active torsions:
REMARK  status: ('A' for Active; 'I' for Inactive)
REMARK    1  A    between atoms: N_1  and  C_2
REMARK    2  A    between atoms: C_3  and  C_22
REMARK    3  A    between atoms: C_6  and  S_7
REMARK    4  A    between atoms: S_7  and  C_8
REMARK    5  A    between atoms: C_8  and  C_9
REMARK    6  A    between atoms: N_11  and  C_12
REMARK    7  A    between atoms: C_15  and  C_18
REMARK    8  A    between atoms: C_18  and  O_20
REMARK    9  A    between atoms: O_20  and  C_21
REMARK   10  A    between atoms: C_25  and  N_28
REMARK   11  A    between atoms: C_29  and  C_31
REMARK                            x       y       z     vdW  Elec       q    Type
REMARK                         _______ _______ _______ _____ _____    ______ ____
ROOT
ATOM      1  N   UNL A   1     -10.700 206.196 118.412  0.00  0.00    -0.305 N 
ATOM      2  C   UNL A   1     -11.458 207.370 118.056  0.00  0.00    +0.153 C 
ATOM      3  C   UNL A   1     -11.156 204.906 118.623  0.00  0.00    +0.165 A 
ATOM      4  N   UNL A   1     -10.114 204.156 118.947  0.00  0.00    -0.128 NA
ATOM      5  N   UNL A   1      -8.973 204.925 118.875  0.00  0.00    -0.122 NA
ATOM      6  C   UNL A   1      -9.342 206.144 118.572  0.00  0.00    +0.192 A 
ENDROOT
BRANCH   3   7
ATOM      7  C   UNL A   1     -12.539 204.433 118.491  0.00  0.00    +0.019 A 
ATOM      8  C   UNL A   1     -12.972 203.818 117.313  0.00  0.00    +0.013 A 
ATOM      9  C   UNL A   1     -14.305 203.438 117.141  0.00  0.00    +0.024 A 
ATOM     10  C   UNL A   1     -15.236 203.608 118.161  0.00  0.00    +0.033 A 
ATOM     11  C   UNL A   1     -14.795 204.147 119.378  0.00  0.00    +0.024 A 
ATOM     12  C   UNL A   1     -13.459 204.558 119.539  0.00  0.00    +0.013 A 
BRANCH  10  13
ATOM     13  N   UNL A   1     -16.599 203.260 118.025  0.00  0.00    -0.286 N 
ATOM     14  C   UNL A   1     -17.132 201.980 118.056  0.00  0.00    +0.214 C 
ATOM     15  O   UNL A   1     -16.515 200.930 118.210  0.00  0.00    -0.276 OA
ATOM     16  C   UNL A   1     -18.626 201.937 117.869  0.00  0.00    +0.109 C 
ATOM     17  H   UNL A   1     -17.240 204.025 117.853  0.00  0.00    +0.155 HD
ENDBRANCH  10  13
ENDBRANCH   3   7
BRANCH   6  18
ATOM     18  S   UNL A   1      -8.295 207.497 118.330  0.00  0.00    -0.077 S 
BRANCH  18  19
ATOM     19  C   UNL A   1      -7.716 207.192 116.638  0.00  0.00    +0.173 C 
BRANCH  19  20
ATOM     20  C   UNL A   1      -8.861 207.346 115.651  0.00  0.00    +0.228 C 
ATOM     21  O   UNL A   1      -9.441 208.425 115.525  0.00  0.00    -0.275 OA
ATOM     22  N   UNL A   1      -9.185 206.169 114.991  0.00  0.00    -0.285 N 
ATOM     23  H   UNL A   1      -8.761 205.313 115.345  0.00  0.00    +0.155 HD
BRANCH  22  24
ATOM     24  C   UNL A   1     -10.206 206.008 114.033  0.00  0.00    +0.033 A 
ATOM     25  C   UNL A   1     -10.191 206.618 112.775  0.00  0.00    +0.024 A 
ATOM     26  C   UNL A   1     -11.268 206.467 111.895  0.00  0.00    +0.017 A 
ATOM     27  C   UNL A   1     -12.378 205.698 112.260  0.00  0.00    +0.059 A 
ATOM     28  C   UNL A   1     -12.379 205.051 113.504  0.00  0.00    +0.017 A 
ATOM     29  C   UNL A   1     -11.293 205.198 114.379  0.00  0.00    +0.024 A 
BRANCH  27  30
ATOM     30  C   UNL A   1     -13.520 205.610 111.311  0.00  0.00    +0.339 C 
ATOM     31  O   UNL A   1     -13.681 206.364 110.364  0.00  0.00    -0.245 OA
BRANCH  30  32
ATOM     32  O   UNL A   1     -14.346 204.592 111.665  0.00  0.00    -0.465 OA
ATOM     33  C   UNL A   1     -15.671 205.008 112.027  0.00  0.00    +0.280 C 
ENDBRANCH  30  32
ENDBRANCH  27  30
ENDBRANCH  22  24
ENDBRANCH  19  20
ENDBRANCH  18  19
ENDBRANCH   6  18
TORSDOF 8
ENDMDL
MODEL 2
REMARK minimizedAffinity -7.67185926
REMARK minimizedRMSD -1
REMARK  Name = CS59
REMARK  11 active torsions:
REMARK  status: ('A' for Active; 'I' for Inactive)
REMARK    1  A    between atoms: N_1  and  C_2
REMARK    2  A    between atoms: C_3  and  C_22
REMARK    3  A    between atoms: C_6  and  S_7
REMARK    4  A    between atoms: S_7  and  C_8
REMARK    5  A    between atoms: C_8  and  C_9
REMARK    6  A    between atoms: N_11  and  C_12
REMARK    7  A    between atoms: C_15  and  C_18
REMARK    8  A    between atoms: C_18  and  O_20
REMARK    9  A    between atoms: O_20  and  C_21
REMARK   10  A    between atoms: C_25  and  N_28
REMARK   11  A    between atoms: C_29  and  C_31
REMARK                            x       y       z     vdW  Elec       q    Type
REMARK                         _______ _______ _______ _____ _____    ______ ____
ROOT
ATOM      1  N   UNL A   1     -12.227 205.466 118.111  0.00  0.00    -0.305 N 
ATOM      2  C   UNL A   1     -11.291 204.371 118.179  0.00  0.00    +0.153 C 
ATOM      3  C   UNL A   1     -12.274 206.504 117.197  0.00  0.00    +0.165 A 
ATOM      4  N   UNL A   1     -13.290 207.288 117.527  0.00  0.00    -0.128 NA
ATOM      5  N   UNL A   1     -13.952 206.731 118.598  0.00  0.00    -0.122 NA
ATOM      6  C   UNL A   1     -13.295 205.653 118.945  0.00  0.00    +0.192 A 
ENDROOT
BRANCH   3   7
ATOM      7  C   UNL A   1     -11.382 206.703 116.048  0.00  0.00    +0.019 A 
ATOM      8  C   UNL A   1     -11.410 205.821 114.964  0.00  0.00    +0.013 A 
ATOM      9  C   UNL A   1     -10.510 205.948 113.903  0.00  0.00    +0.024 A 
ATOM     10  C   UNL A   1      -9.592 206.992 113.863  0.00  0.00    +0.033 A 
ATOM     11  C   UNL A   1      -9.611 207.932 114.904  0.00  0.00    +0.024 A 
ATOM     12  C   UNL A   1     -10.497 207.786 115.988  0.00  0.00    +0.013 A 
BRANCH  10  13
ATOM     13  N   UNL A   1      -8.648 207.149 112.823  0.00  0.00    -0.286 N 
ATOM     14  C   UNL A   1      -7.276 206.972 112.919  0.00  0.00    +0.214 C 
ATOM     15  O   UNL A   1      -6.645 206.646 113.920  0.00  0.00    -0.276 OA
ATOM     16  C   UNL A   1      -6.537 207.227 111.632  0.00  0.00    +0.109 C 
ATOM     17  H   UNL A   1      -9.015 207.457 111.930  0.00  0.00    +0.155 HD
ENDBRANCH  10  13
ENDBRANCH   3   7
BRANCH   6  18
ATOM     18  S   UNL A   1     -13.721 204.564 120.218  0.00  0.00    -0.077 S 
BRANCH  18  19
ATOM     19  C   UNL A   1     -15.105 203.669 119.461  0.00  0.00    +0.173 C 
BRANCH  19  20
ATOM     20  C   UNL A   1     -14.900 203.546 117.961  0.00  0.00    +0.228 C 
ATOM     21  O   UNL A   1     -14.284 202.591 117.487  0.00  0.00    -0.275 OA
ATOM     22  N   UNL A   1     -15.417 204.615 117.243  0.00  0.00    -0.285 N 
ATOM     23  H   UNL A   1     -15.714 205.427 117.781  0.00  0.00    +0.155 HD
BRANCH  22  24
ATOM     24  C   UNL A   1     -15.365 204.778 115.844  0.00  0.00    +0.033 A 
ATOM     25  C   UNL A   1     -14.795 203.843 114.976  0.00  0.00    +0.024 A 
ATOM     26  C   UNL A   1     -14.720 204.098 113.602  0.00  0.00    +0.017 A 
ATOM     27  C   UNL A   1     -15.218 205.293 113.075  0.00  0.00    +0.059 A 
ATOM     28  C   UNL A   1     -15.827 206.216 113.938  0.00  0.00    +0.017 A 
ATOM     29  C   UNL A   1     -15.909 205.952 115.312  0.00  0.00    +0.024 A 
BRANCH  27  30
ATOM     30  C   UNL A   1     -15.068 205.540 111.616  0.00  0.00    +0.339 C 
ATOM     31  O   UNL A   1     -15.917 206.079 110.923  0.00  0.00    -0.245 OA
BRANCH  30  32
ATOM     32  O   UNL A   1     -13.872 205.067 111.181  0.00  0.00    -0.465 OA
ATOM     33  C   UNL A   1     -12.845 206.064 111.083  0.00  0.00    +0.280 C 
ENDBRANCH  30  32
ENDBRANCH  27  30
ENDBRANCH  22  24
ENDBRANCH  19  20
ENDBRANCH  18  19
ENDBRANCH   6  18
TORSDOF 8
ENDMDL
MODEL 3
REMARK minimizedAffinity -7.23790884
REMARK minimizedRMSD -1
REMARK  Name = CS59
REMARK  11 active torsions:
REMARK  status: ('A' for Active; 'I' for Inactive)
REMARK    1  A    between atoms: N_1  and  C_2
REMARK    2  A    between atoms: C_3  and  C_22
REMARK    3  A    between atoms: C_6  and  S_7
REMARK    4  A    between atoms: S_7  and  C_8
REMARK    5  A    between atoms: C_8  and  C_9
REMARK    6  A    between atoms: N_11  and  C_12
REMARK    7  A    between atoms: C_15  and  C_18
REMARK    8  A    between atoms: C_18  and  O_20
REMARK    9  A    between atoms: O_20  and  C_21
REMARK   10  A    between atoms: C_25  and  N_28
REMARK   11  A    between atoms: C_29  and  C_31
REMARK                            x       y       z     vdW  Elec       q    Type
REMARK                         _______ _______ _______ _____ _____    ______ ____
ROOT
ATOM      1  N   UNL A   1     -15.049 205.561 115.337  0.00  0.00    -0.305 N 
ATOM      2  C   UNL A   1     -14.758 204.176 115.614  0.00  0.00    +0.153 C 
ATOM      3  C   UNL A   1     -14.583 206.688 115.992  0.00  0.00    +0.165 A 
ATOM      4  N   UNL A   1     -15.123 207.748 115.409  0.00  0.00    -0.128 NA
ATOM      5  N   UNL A   1     -15.874 207.329 114.333  0.00  0.00    -0.122 NA
ATOM      6  C   UNL A   1     -15.834 206.020 114.314  0.00  0.00    +0.192 A 
ENDROOT
BRANCH   3   7
ATOM      7  C   UNL A   1     -13.641 206.721 117.117  0.00  0.00    +0.019 A 
ATOM      8  C   UNL A   1     -14.003 206.209 118.365  0.00  0.00    +0.013 A 
ATOM      9  C   UNL A   1     -13.149 206.309 119.466  0.00  0.00    +0.024 A 
ATOM     10  C   UNL A   1     -11.883 206.872 119.342  0.00  0.00    +0.033 A 
ATOM     11  C   UNL A   1     -11.475 207.313 118.074  0.00  0.00    +0.024 A 
ATOM     12  C   UNL A   1     -12.348 207.241 116.973  0.00  0.00    +0.013 A 
BRANCH  10  13
ATOM     13  N   UNL A   1     -10.993 207.015 120.430  0.00  0.00    -0.286 N 
ATOM     14  C   UNL A   1      -9.726 206.461 120.540  0.00  0.00    +0.214 C 
ATOM     15  O   UNL A   1      -9.158 205.756 119.712  0.00  0.00    -0.276 OA
ATOM     16  C   UNL A   1      -9.029 206.788 121.834  0.00  0.00    +0.109 C 
ATOM     17  H   UNL A   1     -11.338 207.547 121.221  0.00  0.00    +0.155 HD
ENDBRANCH  10  13
ENDBRANCH   3   7
BRANCH   6  18
ATOM     18  S   UNL A   1     -16.587 204.993 113.147  0.00  0.00    -0.077 S 
BRANCH  18  19
ATOM     19  C   UNL A   1     -15.562 205.315 111.686  0.00  0.00    +0.173 C 
BRANCH  19  20
ATOM     20  C   UNL A   1     -14.093 205.109 112.014  0.00  0.00    +0.228 C 
ATOM     21  O   UNL A   1     -13.622 203.976 112.108  0.00  0.00    -0.275 OA
ATOM     22  N   UNL A   1     -13.405 206.294 112.235  0.00  0.00    -0.285 N 
ATOM     23  H   UNL A   1     -13.966 207.139 112.327  0.00  0.00    +0.155 HD
BRANCH  22  24
ATOM     24  C   UNL A   1     -12.040 206.412 112.568  0.00  0.00    +0.033 A 
ATOM     25  C   UNL A   1     -11.510 206.041 113.807  0.00  0.00    +0.024 A 
ATOM     26  C   UNL A   1     -10.156 206.245 114.093  0.00  0.00    +0.017 A 
ATOM     27  C   UNL A   1      -9.309 206.822 113.141  0.00  0.00    +0.059 A 
ATOM     28  C   UNL A   1      -9.829 207.159 111.883  0.00  0.00    +0.017 A 
ATOM     29  C   UNL A   1     -11.184 206.943 111.597  0.00  0.00    +0.024 A 
BRANCH  27  30
ATOM     30  C   UNL A   1      -7.890 207.066 113.512  0.00  0.00    +0.339 C 
ATOM     31  O   UNL A   1      -6.940 206.793 112.796  0.00  0.00    -0.245 OA
BRANCH  30  32
ATOM     32  O   UNL A   1      -7.816 207.614 114.752  0.00  0.00    -0.465 OA
ATOM     33  C   UNL A   1      -7.881 209.047 114.769  0.00  0.00    +0.280 C 
ENDBRANCH  30  32
ENDBRANCH  27  30
ENDBRANCH  22  24
ENDBRANCH  19  20
ENDBRANCH  18  19
ENDBRANCH   6  18
TORSDOF 8
ENDMDL
MODEL 4
REMARK minimizedAffinity -7.22039986
REMARK minimizedRMSD -1
REMARK  Name = CS59
REMARK  11 active torsions:
REMARK  status: ('A' for Active; 'I' for Inactive)
REMARK    1  A    between atoms: N_1  and  C_2
REMARK    2  A    between atoms: C_3  and  C_22
REMARK    3  A    between atoms: C_6  and  S_7
REMARK    4  A    between atoms: S_7  and  C_8
REMARK    5  A    between atoms: C_8  and  C_9
REMARK    6  A    between atoms: N_11  and  C_12
REMARK    7  A    between atoms: C_15  and  C_18
REMARK    8  A    between atoms: C_18  and  O_20
REMARK    9  A    between atoms: O_20  and  C_21
REMARK   10  A    between atoms: C_25  and  N_28
REMARK   11  A    between atoms: C_29  and  C_31
REMARK                            x       y       z     vdW  Elec       q    Type
REMARK                         _______ _______ _______ _____ _____    ______ ____
ROOT
ATOM      1  N   UNL A   1     -17.762 201.864 119.424  0.00  0.00    -0.305 N 
ATOM      2  C   UNL A   1     -16.971 201.724 120.621  0.00  0.00    +0.153 C 
ATOM      3  C   UNL A   1     -19.136 201.994 119.308  0.00  0.00    +0.165 A 
ATOM      4  N   UNL A   1     -19.427 202.077 118.018  0.00  0.00    -0.128 NA
ATOM      5  N   UNL A   1     -18.253 202.080 117.297  0.00  0.00    -0.122 NA
ATOM      6  C   UNL A   1     -17.270 201.935 118.149  0.00  0.00    +0.192 A 
ENDROOT
BRANCH   3   7
ATOM      7  C   UNL A   1     -20.106 202.055 120.407  0.00  0.00    +0.019 A 
ATOM      8  C   UNL A   1     -20.458 200.901 121.111  0.00  0.00    +0.013 A 
ATOM      9  C   UNL A   1     -21.442 200.928 122.103  0.00  0.00    +0.024 A 
ATOM     10  C   UNL A   1     -22.064 202.119 122.463  0.00  0.00    +0.033 A 
ATOM     11  C   UNL A   1     -21.659 203.299 121.821  0.00  0.00    +0.024 A 
ATOM     12  C   UNL A   1     -20.690 203.265 120.800  0.00  0.00    +0.013 A 
BRANCH  10  13
ATOM     13  N   UNL A   1     -23.078 202.193 123.443  0.00  0.00    -0.286 N 
ATOM     14  C   UNL A   1     -23.013 201.700 124.738  0.00  0.00    +0.214 C 
ATOM     15  O   UNL A   1     -22.065 201.120 125.257  0.00  0.00    -0.276 OA
ATOM     16  C   UNL A   1     -24.269 201.924 125.539  0.00  0.00    +0.109 C 
ATOM     17  H   UNL A   1     -23.951 202.617 123.152  0.00  0.00    +0.155 HD
ENDBRANCH  10  13
ENDBRANCH   3   7
BRANCH   6  18
ATOM     18  S   UNL A   1     -15.585 201.904 117.768  0.00  0.00    -0.077 S 
BRANCH  18  19
ATOM     19  C   UNL A   1     -15.158 203.660 117.933  0.00  0.00    +0.173 C 
BRANCH  19  20
ATOM     20  C   UNL A   1     -14.674 204.214 116.604  0.00  0.00    +0.228 C 
ATOM     21  O   UNL A   1     -15.371 204.123 115.594  0.00  0.00    -0.275 OA
ATOM     22  N   UNL A   1     -13.397 204.753 116.662  0.00  0.00    -0.285 N 
ATOM     23  H   UNL A   1     -12.861 204.574 117.511  0.00  0.00    +0.155 HD
BRANCH  22  24
ATOM     24  C   UNL A   1     -12.687 205.328 115.588  0.00  0.00    +0.033 A 
ATOM     25  C   UNL A   1     -13.194 206.355 114.787  0.00  0.00    +0.024 A 
ATOM     26  C   UNL A   1     -12.462 206.836 113.696  0.00  0.00    +0.017 A 
ATOM     27  C   UNL A   1     -11.208 206.297 113.392  0.00  0.00    +0.059 A 
ATOM     28  C   UNL A   1     -10.679 205.294 114.217  0.00  0.00    +0.017 A 
ATOM     29  C   UNL A   1     -11.412 204.822 115.314  0.00  0.00    +0.024 A 
BRANCH  27  30
ATOM     30  C   UNL A   1     -10.492 206.806 112.192  0.00  0.00    +0.339 C 
ATOM     31  O   UNL A   1     -10.739 206.455 111.049  0.00  0.00    -0.245 OA
BRANCH  30  32
ATOM     32  O   UNL A   1      -9.530 207.691 112.559  0.00  0.00    -0.465 OA
ATOM     33  C   UNL A   1      -8.196 207.289 112.214  0.00  0.00    +0.280 C 
ENDBRANCH  30  32
ENDBRANCH  27  30
ENDBRANCH  22  24
ENDBRANCH  19  20
ENDBRANCH  18  19
ENDBRANCH   6  18
TORSDOF 8
ENDMDL
MODEL 5
REMARK minimizedAffinity -7.13153076
REMARK minimizedRMSD -1
REMARK  Name = CS59
REMARK  11 active torsions:
REMARK  status: ('A' for Active; 'I' for Inactive)
REMARK    1  A    between atoms: N_1  and  C_2
REMARK    2  A    between atoms: C_3  and  C_22
REMARK    3  A    between atoms: C_6  and  S_7
REMARK    4  A    between atoms: S_7  and  C_8
REMARK    5  A    between atoms: C_8  and  C_9
REMARK    6  A    between atoms: N_11  and  C_12
REMARK    7  A    between atoms: C_15  and  C_18
REMARK    8  A    between atoms: C_18  and  O_20
REMARK    9  A    between atoms: O_20  and  C_21
REMARK   10  A    between atoms: C_25  and  N_28
REMARK   11  A    between atoms: C_29  and  C_31
REMARK                            x       y       z     vdW  Elec       q    Type
REMARK                         _______ _______ _______ _____ _____    ______ ____
ROOT
ATOM      1  N   UNL A   1      -9.287 207.313 117.303  0.00  0.00    -0.305 N 
ATOM      2  C   UNL A   1      -8.297 206.496 117.960  0.00  0.00    +0.153 C 
ATOM      3  C   UNL A   1      -9.232 207.893 116.047  0.00  0.00    +0.165 A 
ATOM      4  N   UNL A   1     -10.356 208.569 115.864  0.00  0.00    -0.128 NA
ATOM      5  N   UNL A   1     -11.176 208.374 116.954  0.00  0.00    -0.122 NA
ATOM      6  C   UNL A   1     -10.516 207.636 117.811  0.00  0.00    +0.192 A 
ENDROOT
BRANCH   3   7
ATOM      7  C   UNL A   1      -8.142 207.770 115.072  0.00  0.00    +0.019 A 
ATOM      8  C   UNL A   1      -6.972 208.520 115.215  0.00  0.00    +0.013 A 
ATOM      9  C   UNL A   1      -5.961 208.477 114.251  0.00  0.00    +0.024 A 
ATOM     10  C   UNL A   1      -6.062 207.640 113.144  0.00  0.00    +0.033 A 
ATOM     11  C   UNL A   1      -7.194 206.819 113.034  0.00  0.00    +0.024 A 
ATOM     12  C   UNL A   1      -8.226 206.887 113.989  0.00  0.00    +0.013 A 
BRANCH  10  13
ATOM     13  N   UNL A   1      -5.077 207.578 112.133  0.00  0.00    -0.286 N 
ATOM     14  C   UNL A   1      -3.965 206.750 112.112  0.00  0.00    +0.214 C 
ATOM     15  O   UNL A   1      -3.646 205.927 112.964  0.00  0.00    -0.276 OA
ATOM     16  C   UNL A   1      -3.093 206.931 110.897  0.00  0.00    +0.109 C 
ATOM     17  H   UNL A   1      -5.182 208.233 111.367  0.00  0.00    +0.155 HD
ENDBRANCH  10  13
ENDBRANCH   3   7
BRANCH   6  18
ATOM     18  S   UNL A   1     -11.102 207.074 119.336  0.00  0.00    -0.077 S 
BRANCH  18  19
ATOM     19  C   UNL A   1     -11.954 205.550 118.842  0.00  0.00    +0.173 C 
BRANCH  19  20
ATOM     20  C   UNL A   1     -12.837 205.805 117.634  0.00  0.00    +0.228 C 
ATOM     21  O   UNL A   1     -13.917 206.385 117.755  0.00  0.00    -0.275 OA
ATOM     22  N   UNL A   1     -12.326 205.284 116.454  0.00  0.00    -0.285 N 
ATOM     23  H   UNL A   1     -11.529 204.654 116.539  0.00  0.00    +0.155 HD
BRANCH  22  24
ATOM     24  C   UNL A   1     -12.929 205.357 115.182  0.00  0.00    +0.033 A 
ATOM     25  C   UNL A   1     -12.646 206.358 114.248  0.00  0.00    +0.024 A 
ATOM     26  C   UNL A   1     -13.329 206.409 113.028  0.00  0.00    +0.017 A 
ATOM     27  C   UNL A   1     -14.304 205.454 112.722  0.00  0.00    +0.059 A 
ATOM     28  C   UNL A   1     -14.562 204.426 113.639  0.00  0.00    +0.017 A 
ATOM     29  C   UNL A   1     -13.869 204.374 114.856  0.00  0.00    +0.024 A 
BRANCH  27  30
ATOM     30  C   UNL A   1     -15.038 205.581 111.434  0.00  0.00    +0.339 C 
ATOM     31  O   UNL A   1     -14.497 205.763 110.355  0.00  0.00    -0.245 OA
BRANCH  30  32
ATOM     32  O   UNL A   1     -16.375 205.482 111.645  0.00  0.00    -0.465 OA
ATOM     33  C   UNL A   1     -17.015 206.726 111.966  0.00  0.00    +0.280 C 
ENDBRANCH  30  32
ENDBRANCH  27  30
ENDBRANCH  22  24
ENDBRANCH  19  20
ENDBRANCH  18  19
ENDBRANCH   6  18
TORSDOF 8
ENDMDL
MODEL 6
REMARK minimizedAffinity -6.84410477
REMARK minimizedRMSD -1
REMARK  Name = CS59
REMARK  11 active torsions:
REMARK  status: ('A' for Active; 'I' for Inactive)
REMARK    1  A    between atoms: N_1  and  C_2
REMARK    2  A    between atoms: C_3  and  C_22
REMARK    3  A    between atoms: C_6  and  S_7
REMARK    4  A    between atoms: S_7  and  C_8
REMARK    5  A    between atoms: C_8  and  C_9
REMARK    6  A    between atoms: N_11  and  C_12
REMARK    7  A    between atoms: C_15  and  C_18
REMARK    8  A    between atoms: C_18  and  O_20
REMARK    9  A    between atoms: O_20  and  C_21
REMARK   10  A    between atoms: C_25  and  N_28
REMARK   11  A    between atoms: C_29  and  C_31
REMARK                            x       y       z     vdW  Elec       q    Type
REMARK                         _______ _______ _______ _____ _____    ______ ____
ROOT
ATOM      1  N   UNL A   1     -13.776 205.628 118.830  0.00  0.00    -0.305 N 
ATOM      2  C   UNL A   1     -13.047 206.856 119.029  0.00  0.00    +0.153 C 
ATOM      3  C   UNL A   1     -13.997 204.938 117.651  0.00  0.00    +0.165 A 
ATOM      4  N   UNL A   1     -14.731 203.872 117.937  0.00  0.00    -0.128 NA
ATOM      5  N   UNL A   1     -14.925 203.819 119.300  0.00  0.00    -0.122 NA
ATOM      6  C   UNL A   1     -14.363 204.883 119.816  0.00  0.00    +0.192 A 
ENDROOT
BRANCH   3   7
ATOM      7  C   UNL A   1     -13.496 205.295 116.319  0.00  0.00    +0.019 A 
ATOM      8  C   UNL A   1     -14.127 206.286 115.562  0.00  0.00    +0.013 A 
ATOM      9  C   UNL A   1     -13.714 206.579 114.260  0.00  0.00    +0.024 A 
ATOM     10  C   UNL A   1     -12.619 205.932 113.694  0.00  0.00    +0.033 A 
ATOM     11  C   UNL A   1     -11.925 204.996 114.474  0.00  0.00    +0.024 A 
ATOM     12  C   UNL A   1     -12.362 204.679 115.775  0.00  0.00    +0.013 A 
BRANCH  10  13
ATOM     13  N   UNL A   1     -12.178 206.178 112.375  0.00  0.00    -0.286 N 
ATOM     14  C   UNL A   1     -11.055 206.902 112.001  0.00  0.00    +0.214 C 
ATOM     15  O   UNL A   1     -10.252 207.450 112.748  0.00  0.00    -0.276 OA
ATOM     16  C   UNL A   1     -10.860 206.997 110.510  0.00  0.00    +0.109 C 
ATOM     17  H   UNL A   1     -12.765 205.817 111.633  0.00  0.00    +0.155 HD
ENDBRANCH  10  13
ENDBRANCH   3   7
BRANCH   6  18
ATOM     18  S   UNL A   1     -14.292 205.286 121.495  0.00  0.00    -0.077 S 
BRANCH  18  19
ATOM     19  C   UNL A   1     -15.911 206.070 121.734  0.00  0.00    +0.173 C 
BRANCH  19  20
ATOM     20  C   UNL A   1     -16.906 205.069 122.295  0.00  0.00    +0.228 C 
ATOM     21  O   UNL A   1     -16.681 204.485 123.355  0.00  0.00    -0.275 OA
ATOM     22  N   UNL A   1     -18.010 204.870 121.479  0.00  0.00    -0.285 N 
ATOM     23  H   UNL A   1     -17.963 205.263 120.540  0.00  0.00    +0.155 HD
BRANCH  22  24
ATOM     24  C   UNL A   1     -19.086 203.996 121.735  0.00  0.00    +0.033 A 
ATOM     25  C   UNL A   1     -20.104 204.269 122.654  0.00  0.00    +0.024 A 
ATOM     26  C   UNL A   1     -21.109 203.329 122.906  0.00  0.00    +0.017 A 
ATOM     27  C   UNL A   1     -21.112 202.100 122.239  0.00  0.00    +0.059 A 
ATOM     28  C   UNL A   1     -20.116 201.839 121.288  0.00  0.00    +0.017 A 
ATOM     29  C   UNL A   1     -19.117 202.787 121.031  0.00  0.00    +0.024 A 
BRANCH  27  30
ATOM     30  C   UNL A   1     -22.172 201.113 122.580  0.00  0.00    +0.339 C 
ATOM     31  O   UNL A   1     -22.115 199.926 122.301  0.00  0.00    -0.245 OA
BRANCH  30  32
ATOM     32  O   UNL A   1     -23.198 201.729 123.221  0.00  0.00    -0.465 OA
ATOM     33  C   UNL A   1     -24.500 201.298 122.801  0.00  0.00    +0.280 C 
ENDBRANCH  30  32
ENDBRANCH  27  30
ENDBRANCH  22  24
ENDBRANCH  19  20
ENDBRANCH  18  19
ENDBRANCH   6  18
TORSDOF 8
ENDMDL
MODEL 7
REMARK minimizedAffinity -6.80788612
REMARK minimizedRMSD -1
REMARK  Name = CS59
REMARK  11 active torsions:
REMARK  status: ('A' for Active; 'I' for Inactive)
REMARK    1  A    between atoms: N_1  and  C_2
REMARK    2  A    between atoms: C_3  and  C_22
REMARK    3  A    between atoms: C_6  and  S_7
REMARK    4  A    between atoms: S_7  and  C_8
REMARK    5  A    between atoms: C_8  and  C_9
REMARK    6  A    between atoms: N_11  and  C_12
REMARK    7  A    between atoms: C_15  and  C_18
REMARK    8  A    between atoms: C_18  and  O_20
REMARK    9  A    between atoms: O_20  and  C_21
REMARK   10  A    between atoms: C_25  and  N_28
REMARK   11  A    between atoms: C_29  and  C_31
REMARK                            x       y       z     vdW  Elec       q    Type
REMARK                         _______ _______ _______ _____ _____    ______ ____
ROOT
ATOM      1  N   UNL A   1     -14.277 204.120 117.577  0.00  0.00    -0.305 N 
ATOM      2  C   UNL A   1     -13.264 204.480 118.538  0.00  0.00    +0.153 C 
ATOM      3  C   UNL A   1     -14.321 204.403 116.223  0.00  0.00    +0.165 A 
ATOM      4  N   UNL A   1     -15.444 203.892 115.739  0.00  0.00    -0.128 NA
ATOM      5  N   UNL A   1     -16.094 203.213 116.746  0.00  0.00    -0.122 NA
ATOM      6  C   UNL A   1     -15.393 203.374 117.840  0.00  0.00    +0.192 A 
ENDROOT
BRANCH   3   7
ATOM      7  C   UNL A   1     -13.304 205.118 115.444  0.00  0.00    +0.019 A 
ATOM      8  C   UNL A   1     -12.008 204.608 115.326  0.00  0.00    +0.013 A 
ATOM      9  C   UNL A   1     -11.007 205.318 114.658  0.00  0.00    +0.024 A 
ATOM     10  C   UNL A   1     -11.283 206.532 114.037  0.00  0.00    +0.033 A 
ATOM     11  C   UNL A   1     -12.599 207.013 114.076  0.00  0.00    +0.024 A 
ATOM     12  C   UNL A   1     -13.600 206.313 114.776  0.00  0.00    +0.013 A 
BRANCH  10  13
ATOM     13  N   UNL A   1     -10.299 207.296 113.370  0.00  0.00    -0.286 N 
ATOM     14  C   UNL A   1      -9.402 208.179 113.953  0.00  0.00    +0.214 C 
ATOM     15  O   UNL A   1      -9.305 208.447 115.146  0.00  0.00    -0.276 OA
ATOM     16  C   UNL A   1      -8.484 208.854 112.968  0.00  0.00    +0.109 C 
ATOM     17  H   UNL A   1     -10.277 207.211 112.360  0.00  0.00    +0.155 HD
ENDBRANCH  10  13
ENDBRANCH   3   7
BRANCH   6  18
ATOM     18  S   UNL A   1     -15.754 202.700 119.390  0.00  0.00    -0.077 S 
BRANCH  18  19
ATOM     19  C   UNL A   1     -17.568 202.720 119.365  0.00  0.00    +0.173 C 
BRANCH  19  20
ATOM     20  C   UNL A   1     -18.117 202.756 120.781  0.00  0.00    +0.228 C 
ATOM     21  O   UNL A   1     -17.803 201.891 121.599  0.00  0.00    -0.275 OA
ATOM     22  N   UNL A   1     -19.007 203.797 121.004  0.00  0.00    -0.285 N 
ATOM     23  H   UNL A   1     -19.329 204.308 120.183  0.00  0.00    +0.155 HD
BRANCH  22  24
ATOM     24  C   UNL A   1     -19.678 204.073 122.212  0.00  0.00    +0.033 A 
ATOM     25  C   UNL A   1     -19.340 205.130 123.062  0.00  0.00    +0.024 A 
ATOM     26  C   UNL A   1     -20.007 205.309 124.279  0.00  0.00    +0.017 A 
ATOM     27  C   UNL A   1     -21.027 204.432 124.663  0.00  0.00    +0.059 A 
ATOM     28  C   UNL A   1     -21.395 203.395 123.795  0.00  0.00    +0.017 A 
ATOM     29  C   UNL A   1     -20.731 203.225 122.573  0.00  0.00    +0.024 A 
BRANCH  27  30
ATOM     30  C   UNL A   1     -21.670 204.633 125.989  0.00  0.00    +0.339 C 
ATOM     31  O   UNL A   1     -22.507 205.492 126.219  0.00  0.00    -0.245 OA
BRANCH  30  32
ATOM     32  O   UNL A   1     -21.179 203.743 126.889  0.00  0.00    -0.465 OA
ATOM     33  C   UNL A   1     -20.698 204.337 128.103  0.00  0.00    +0.280 C 
ENDBRANCH  30  32
ENDBRANCH  27  30
ENDBRANCH  22  24
ENDBRANCH  19  20
ENDBRANCH  18  19
ENDBRANCH   6  18
TORSDOF 8
ENDMDL
MODEL 8
REMARK minimizedAffinity -6.75863123
REMARK minimizedRMSD -1
REMARK  Name = CS59
REMARK  11 active torsions:
REMARK  status: ('A' for Active; 'I' for Inactive)
REMARK    1  A    between atoms: N_1  and  C_2
REMARK    2  A    between atoms: C_3  and  C_22
REMARK    3  A    between atoms: C_6  and  S_7
REMARK    4  A    between atoms: S_7  and  C_8
REMARK    5  A    between atoms: C_8  and  C_9
REMARK    6  A    between atoms: N_11  and  C_12
REMARK    7  A    between atoms: C_15  and  C_18
REMARK    8  A    between atoms: C_18  and  O_20
REMARK    9  A    between atoms: O_20  and  C_21
REMARK   10  A    between atoms: C_25  and  N_28
REMARK   11  A    between atoms: C_29  and  C_31
REMARK                            x       y       z     vdW  Elec       q    Type
REMARK                         _______ _______ _______ _____ _____    ______ ____
ROOT
ATOM      1  N   UNL A   1     -12.352 204.565 117.895  0.00  0.00    -0.305 N 
ATOM      2  C   UNL A   1     -11.561 203.599 117.173  0.00  0.00    +0.153 C 
ATOM      3  C   UNL A   1     -11.958 205.784 118.419  0.00  0.00    +0.165 A 
ATOM      4  N   UNL A   1     -13.009 206.327 119.015  0.00  0.00    -0.128 NA
ATOM      5  N   UNL A   1     -14.102 205.513 118.819  0.00  0.00    -0.122 NA
ATOM      6  C   UNL A   1     -13.689 204.456 118.164  0.00  0.00    +0.192 A 
ENDROOT
BRANCH   3   7
ATOM      7  C   UNL A   1     -10.625 206.391 118.320  0.00  0.00    +0.019 A 
ATOM      8  C   UNL A   1      -9.803 206.491 119.445  0.00  0.00    +0.013 A 
ATOM      9  C   UNL A   1      -8.567 207.141 119.385  0.00  0.00    +0.024 A 
ATOM     10  C   UNL A   1      -8.089 207.661 118.186  0.00  0.00    +0.033 A 
ATOM     11  C   UNL A   1      -8.868 207.492 117.032  0.00  0.00    +0.024 A 
ATOM     12  C   UNL A   1     -10.127 206.865 117.100  0.00  0.00    +0.013 A 
BRANCH  10  13
ATOM     13  N   UNL A   1      -6.857 208.345 118.081  0.00  0.00    -0.286 N 
ATOM     14  C   UNL A   1      -5.652 207.814 117.646  0.00  0.00    +0.214 C 
ATOM     15  O   UNL A   1      -5.447 206.663 117.275  0.00  0.00    -0.276 OA
ATOM     16  C   UNL A   1      -4.512 208.799 117.660  0.00  0.00    +0.109 C 
ATOM     17  H   UNL A   1      -6.855 209.310 118.390  0.00  0.00    +0.155 HD
ENDBRANCH  10  13
ENDBRANCH   3   7
BRANCH   6  18
ATOM     18  S   UNL A   1     -14.670 203.135 117.637  0.00  0.00    -0.077 S 
BRANCH  18  19
ATOM     19  C   UNL A   1     -15.903 203.998 116.625  0.00  0.00    +0.173 C 
BRANCH  19  20
ATOM     20  C   UNL A   1     -15.225 204.991 115.696  0.00  0.00    +0.228 C 
ATOM     21  O   UNL A   1     -15.645 206.144 115.594  0.00  0.00    -0.275 OA
ATOM     22  N   UNL A   1     -14.169 204.446 114.980  0.00  0.00    -0.285 N 
ATOM     23  H   UNL A   1     -14.067 203.433 115.013  0.00  0.00    +0.155 HD
BRANCH  22  24
ATOM     24  C   UNL A   1     -13.365 205.123 114.040  0.00  0.00    +0.033 A 
ATOM     25  C   UNL A   1     -13.330 204.803 112.680  0.00  0.00    +0.024 A 
ATOM     26  C   UNL A   1     -12.461 205.473 111.812  0.00  0.00    +0.017 A 
ATOM     27  C   UNL A   1     -11.615 206.478 112.293  0.00  0.00    +0.059 A 
ATOM     28  C   UNL A   1     -11.677 206.828 113.649  0.00  0.00    +0.017 A 
ATOM     29  C   UNL A   1     -12.556 206.161 114.513  0.00  0.00    +0.024 A 
BRANCH  27  30
ATOM     30  C   UNL A   1     -10.673 207.125 111.341  0.00  0.00    +0.339 C 
ATOM     31  O   UNL A   1     -10.707 206.965 110.131  0.00  0.00    -0.245 OA
BRANCH  30  32
ATOM     32  O   UNL A   1      -9.777 207.891 112.015  0.00  0.00    -0.465 OA
ATOM     33  C   UNL A   1      -8.485 207.286 112.172  0.00  0.00    +0.280 C 
ENDBRANCH  30  32
ENDBRANCH  27  30
ENDBRANCH  22  24
ENDBRANCH  19  20
ENDBRANCH  18  19
ENDBRANCH   6  18
TORSDOF 8
ENDMDL
MODEL 9
REMARK minimizedAffinity -6.73477507
REMARK minimizedRMSD -1
REMARK  Name = CS59
REMARK  11 active torsions:
REMARK  status: ('A' for Active; 'I' for Inactive)
REMARK    1  A    between atoms: N_1  and  C_2
REMARK    2  A    between atoms: C_3  and  C_22
REMARK    3  A    between atoms: C_6  and  S_7
REMARK    4  A    between atoms: S_7  and  C_8
REMARK    5  A    between atoms: C_8  and  C_9
REMARK    6  A    between atoms: N_11  and  C_12
REMARK    7  A    between atoms: C_15  and  C_18
REMARK    8  A    between atoms: C_18  and  O_20
REMARK    9  A    between atoms: O_20  and  C_21
REMARK   10  A    between atoms: C_25  and  N_28
REMARK   11  A    between atoms: C_29  and  C_31
REMARK                            x       y       z     vdW  Elec       q    Type
REMARK                         _______ _______ _______ _____ _____    ______ ____
ROOT
ATOM      1  N   UNL A   1     -13.752 203.962 116.888  0.00  0.00    -0.305 N 
ATOM      2  C   UNL A   1     -13.061 203.977 118.153  0.00  0.00    +0.153 C 
ATOM      3  C   UNL A   1     -13.436 204.640 115.723  0.00  0.00    +0.165 A 
ATOM      4  N   UNL A   1     -14.356 204.342 114.818  0.00  0.00    -0.128 NA
ATOM      5  N   UNL A   1     -15.225 203.418 115.355  0.00  0.00    -0.122 NA
ATOM      6  C   UNL A   1     -14.861 203.215 116.597  0.00  0.00    +0.192 A 
ENDROOT
BRANCH   3   7
ATOM      7  C   UNL A   1     -12.278 205.516 115.506  0.00  0.00    +0.019 A 
ATOM      8  C   UNL A   1     -12.269 206.821 116.006  0.00  0.00    +0.013 A 
ATOM      9  C   UNL A   1     -11.212 207.694 115.736  0.00  0.00    +0.024 A 
ATOM     10  C   UNL A   1     -10.104 207.272 115.008  0.00  0.00    +0.033 A 
ATOM     11  C   UNL A   1     -10.063 205.939 114.574  0.00  0.00    +0.024 A 
ATOM     12  C   UNL A   1     -11.143 205.071 114.819  0.00  0.00    +0.013 A 
BRANCH  10  13
ATOM     13  N   UNL A   1      -9.021 208.124 114.692  0.00  0.00    -0.286 N 
ATOM     14  C   UNL A   1      -7.930 208.407 115.499  0.00  0.00    +0.214 C 
ATOM     15  O   UNL A   1      -7.713 207.967 116.623  0.00  0.00    -0.276 OA
ATOM     16  C   UNL A   1      -6.947 209.367 114.880  0.00  0.00    +0.109 C 
ATOM     17  H   UNL A   1      -9.074 208.599 113.798  0.00  0.00    +0.155 HD
ENDBRANCH  10  13
ENDBRANCH   3   7
BRANCH   6  18
ATOM     18  S   UNL A   1     -15.602 202.122 117.711  0.00  0.00    -0.077 S 
BRANCH  18  19
ATOM     19  C   UNL A   1     -17.256 202.850 117.866  0.00  0.00    +0.173 C 
BRANCH  19  20
ATOM     20  C   UNL A   1     -17.761 202.716 119.292  0.00  0.00    +0.228 C 
ATOM     21  O   UNL A   1     -17.054 202.213 120.165  0.00  0.00    -0.275 OA
ATOM     22  N   UNL A   1     -19.066 203.157 119.461  0.00  0.00    -0.285 N 
ATOM     23  H   UNL A   1     -19.596 203.355 118.614  0.00  0.00    +0.155 HD
BRANCH  22  24
ATOM     24  C   UNL A   1     -19.799 203.145 120.666  0.00  0.00    +0.033 A 
ATOM     25  C   UNL A   1     -19.947 204.262 121.493  0.00  0.00    +0.024 A 
ATOM     26  C   UNL A   1     -20.634 204.164 122.707  0.00  0.00    +0.017 A 
ATOM     27  C   UNL A   1     -21.188 202.945 123.112  0.00  0.00    +0.059 A 
ATOM     28  C   UNL A   1     -21.075 201.832 122.266  0.00  0.00    +0.017 A 
ATOM     29  C   UNL A   1     -20.394 201.937 121.046  0.00  0.00    +0.024 A 
BRANCH  27  30
ATOM     30  C   UNL A   1     -21.864 202.880 124.435  0.00  0.00    +0.339 C 
ATOM     31  O   UNL A   1     -21.880 203.798 125.240  0.00  0.00    -0.245 OA
BRANCH  30  32
ATOM     32  O   UNL A   1     -22.433 201.660 124.611  0.00  0.00    -0.465 OA
ATOM     33  C   UNL A   1     -23.821 201.704 124.974  0.00  0.00    +0.280 C 
ENDBRANCH  30  32
ENDBRANCH  27  30
ENDBRANCH  22  24
ENDBRANCH  19  20
ENDBRANCH  18  19
ENDBRANCH   6  18
TORSDOF 8
ENDMDL
