MODEL 1
REMARK minimizedAffinity -8.01484966
REMARK minimizedRMSD -1
REMARK  Name = CS64
REMARK  7 active torsions:
REMARK  status: ('A' for Active; 'I' for Inactive)
REMARK    1  A    between atoms: N_1  and  C_2
REMARK    2  A    between atoms: C_3  and  C_12
REMARK    3  A    between atoms: C_6  and  S_7
REMARK    4  A    between atoms: S_7  and  C_8
REMARK    5  A    between atoms: C_8  and  C_9
REMARK    6  A    between atoms: C_12  and  O_13
REMARK    7  A    between atoms: O_13  and  C_14
REMARK                            x       y       z     vdW  Elec       q    Type
REMARK                         _______ _______ _______ _____ _____    ______ ____
ROOT
ATOM      1  N   UNL A   1     -14.506 203.912 118.007  0.00  0.00    -0.306 N 
ATOM      2  C   UNL A   1     -13.826 204.343 119.197  0.00  0.00    +0.153 C 
ATOM      3  C   UNL A   1     -14.141 204.117 116.685  0.00  0.00    +0.172 A 
ATOM      4  N   UNL A   1     -15.028 203.529 115.904  0.00  0.00    -0.130 NA
ATOM      5  N   UNL A   1     -15.980 202.934 116.696  0.00  0.00    -0.122 NA
ATOM      6  C   UNL A   1     -15.664 203.149 117.939  0.00  0.00    +0.192 A 
ENDROOT
BRANCH   6   7
ATOM      7  S   UNL A   1     -16.620 202.619 119.296  0.00  0.00    -0.077 S 
BRANCH   7   8
ATOM      8  C   UNL A   1     -17.884 201.494 118.592  0.00  0.00    +0.172 C 
BRANCH   8   9
ATOM      9  C   UNL A   1     -19.139 202.220 118.175  0.00  0.00    +0.221 C 
ATOM     10  O   UNL A   1     -19.587 202.242 117.011  0.00  0.00    -0.275 OA
ATOM     11  N   UNL A   1     -19.804 202.838 119.179  0.00  0.00    -0.329 N 
ATOM     12  H   UNL A   1     -19.461 202.854 120.139  0.00  0.00    +0.145 HD
ATOM     13  H   UNL A   1     -20.645 203.345 118.957  0.00  0.00    +0.145 HD
ENDBRANCH   8   9
ENDBRANCH   7   8
ENDBRANCH   6   7
BRANCH   3  14
ATOM     14  C   UNL A   1     -12.972 204.894 116.159  0.00  0.00    +0.305 C 
BRANCH  14  15
ATOM     15  O   UNL A   1     -13.491 206.017 115.446  0.00  0.00    -0.482 OA
BRANCH  15  16
ATOM     16  C   UNL A   1     -13.246 206.028 114.087  0.00  0.00    +0.147 A 
ATOM     17  C   UNL A   1     -11.944 205.896 113.575  0.00  0.00    +0.048 A 
ATOM     18  C   UNL A   1     -11.738 205.817 112.205  0.00  0.00    +0.004 A 
ATOM     19  C   UNL A   1     -12.827 205.900 111.341  0.00  0.00    +0.010 A 
ATOM     20  C   UNL A   1     -14.130 206.065 111.841  0.00  0.00    +0.004 A 
ATOM     21  C   UNL A   1     -14.364 206.143 113.233  0.00  0.00    +0.113 A 
ATOM     22  N   UNL A   1     -15.625 206.258 113.719  0.00  0.00    -0.251 NA
ATOM     23  C   UNL A   1     -16.659 206.312 112.851  0.00  0.00    +0.111 A 
ATOM     24  C   UNL A   1     -16.514 206.255 111.481  0.00  0.00    +0.020 A 
ATOM     25  C   UNL A   1     -15.231 206.125 110.971  0.00  0.00    +0.012 A 
ENDBRANCH  15  16
ENDBRANCH  14  15
ENDBRANCH   3  14
TORSDOF 6
ENDMDL
MODEL 2
REMARK minimizedAffinity -7.94606781
REMARK minimizedRMSD -1
REMARK  Name = CS64
REMARK  7 active torsions:
REMARK  status: ('A' for Active; 'I' for Inactive)
REMARK    1  A    between atoms: N_1  and  C_2
REMARK    2  A    between atoms: C_3  and  C_12
REMARK    3  A    between atoms: C_6  and  S_7
REMARK    4  A    between atoms: S_7  and  C_8
REMARK    5  A    between atoms: C_8  and  C_9
REMARK    6  A    between atoms: C_12  and  O_13
REMARK    7  A    between atoms: O_13  and  C_14
REMARK                            x       y       z     vdW  Elec       q    Type
REMARK                         _______ _______ _______ _____ _____    ______ ____
ROOT
ATOM      1  N   UNL A   1     -14.444 204.268 117.495  0.00  0.00    -0.306 N 
ATOM      2  C   UNL A   1     -13.702 205.064 118.433  0.00  0.00    +0.153 C 
ATOM      3  C   UNL A   1     -14.429 204.333 116.109  0.00  0.00    +0.172 A 
ATOM      4  N   UNL A   1     -15.234 203.403 115.632  0.00  0.00    -0.130 NA
ATOM      5  N   UNL A   1     -15.785 202.718 116.689  0.00  0.00    -0.122 NA
ATOM      6  C   UNL A   1     -15.307 203.220 117.788  0.00  0.00    +0.192 A 
ENDROOT
BRANCH   6   7
ATOM      7  S   UNL A   1     -15.768 202.693 119.384  0.00  0.00    -0.077 S 
BRANCH   7   8
ATOM      8  C   UNL A   1     -17.329 201.760 119.158  0.00  0.00    +0.172 C 
BRANCH   8   9
ATOM      9  C   UNL A   1     -17.106 200.271 119.063  0.00  0.00    +0.221 C 
ATOM     10  O   UNL A   1     -17.547 199.438 119.879  0.00  0.00    -0.275 OA
ATOM     11  N   UNL A   1     -16.407 199.866 117.976  0.00  0.00    -0.329 N 
ATOM     12  H   UNL A   1     -16.018 200.518 117.296  0.00  0.00    +0.145 HD
ATOM     13  H   UNL A   1     -16.221 198.882 117.865  0.00  0.00    +0.145 HD
ENDBRANCH   8   9
ENDBRANCH   7   8
ENDBRANCH   6   7
BRANCH   3  14
ATOM     14  C   UNL A   1     -13.679 205.294 115.238  0.00  0.00    +0.305 C 
BRANCH  14  15
ATOM     15  O   UNL A   1     -13.270 204.582 114.070  0.00  0.00    -0.482 OA
BRANCH  15  16
ATOM     16  C   UNL A   1     -13.754 205.070 112.871  0.00  0.00    +0.147 A 
ATOM     17  C   UNL A   1     -15.121 205.014 112.555  0.00  0.00    +0.048 A 
ATOM     18  C   UNL A   1     -15.590 205.596 111.385  0.00  0.00    +0.004 A 
ATOM     19  C   UNL A   1     -14.693 206.209 110.515  0.00  0.00    +0.010 A 
ATOM     20  C   UNL A   1     -13.318 206.242 110.806  0.00  0.00    +0.004 A 
ATOM     21  C   UNL A   1     -12.819 205.659 111.994  0.00  0.00    +0.113 A 
ATOM     22  N   UNL A   1     -11.498 205.730 112.298  0.00  0.00    -0.251 NA
ATOM     23  C   UNL A   1     -10.660 206.352 111.440  0.00  0.00    +0.111 A 
ATOM     24  C   UNL A   1     -11.067 206.933 110.257  0.00  0.00    +0.020 A 
ATOM     25  C   UNL A   1     -12.416 206.880 109.940  0.00  0.00    +0.012 A 
ENDBRANCH  15  16
ENDBRANCH  14  15
ENDBRANCH   3  14
TORSDOF 6
ENDMDL
MODEL 3
REMARK minimizedAffinity -7.88582134
REMARK minimizedRMSD -1
REMARK  Name = CS64
REMARK  7 active torsions:
REMARK  status: ('A' for Active; 'I' for Inactive)
REMARK    1  A    between atoms: N_1  and  C_2
REMARK    2  A    between atoms: C_3  and  C_12
REMARK    3  A    between atoms: C_6  and  S_7
REMARK    4  A    between atoms: S_7  and  C_8
REMARK    5  A    between atoms: C_8  and  C_9
REMARK    6  A    between atoms: C_12  and  O_13
REMARK    7  A    between atoms: O_13  and  C_14
REMARK                            x       y       z     vdW  Elec       q    Type
REMARK                         _______ _______ _______ _____ _____    ______ ____
ROOT
ATOM      1  N   UNL A   1     -14.400 205.163 117.502  0.00  0.00    -0.306 N 
ATOM      2  C   UNL A   1     -14.435 203.762 117.817  0.00  0.00    +0.153 C 
ATOM      3  C   UNL A   1     -15.107 205.844 116.522  0.00  0.00    +0.172 A 
ATOM      4  N   UNL A   1     -14.803 207.126 116.592  0.00  0.00    -0.130 NA
ATOM      5  N   UNL A   1     -13.898 207.304 117.611  0.00  0.00    -0.122 NA
ATOM      6  C   UNL A   1     -13.671 206.148 118.157  0.00  0.00    +0.192 A 
ENDROOT
BRANCH   6   7
ATOM      7  S   UNL A   1     -12.545 205.887 119.461  0.00  0.00    -0.077 S 
BRANCH   7   8
ATOM      8  C   UNL A   1     -10.907 206.367 118.795  0.00  0.00    +0.172 C 
BRANCH   8   9
ATOM      9  C   UNL A   1     -10.583 207.819 119.042  0.00  0.00    +0.221 C 
ATOM     10  O   UNL A   1      -9.930 208.240 120.017  0.00  0.00    -0.275 OA
ATOM     11  N   UNL A   1     -11.022 208.673 118.087  0.00  0.00    -0.329 N 
ATOM     12  H   UNL A   1     -11.571 208.368 117.285  0.00  0.00    +0.145 HD
ATOM     13  H   UNL A   1     -10.841 209.657 118.203  0.00  0.00    +0.145 HD
ENDBRANCH   8   9
ENDBRANCH   7   8
ENDBRANCH   6   7
BRANCH   3  14
ATOM     14  C   UNL A   1     -16.047 205.278 115.501  0.00  0.00    +0.305 C 
BRANCH  14  15
ATOM     15  O   UNL A   1     -15.277 204.463 114.617  0.00  0.00    -0.482 OA
BRANCH  15  16
ATOM     16  C   UNL A   1     -15.048 204.994 113.361  0.00  0.00    +0.147 A 
ATOM     17  C   UNL A   1     -16.104 205.270 112.478  0.00  0.00    +0.048 A 
ATOM     18  C   UNL A   1     -15.850 205.889 111.261  0.00  0.00    +0.004 A 
ATOM     19  C   UNL A   1     -14.541 206.206 110.911  0.00  0.00    +0.010 A 
ATOM     20  C   UNL A   1     -13.474 205.905 111.774  0.00  0.00    +0.004 A 
ATOM     21  C   UNL A   1     -13.708 205.279 113.020  0.00  0.00    +0.113 A 
ATOM     22  N   UNL A   1     -12.684 205.027 113.874  0.00  0.00    -0.251 NA
ATOM     23  C   UNL A   1     -11.429 205.370 113.510  0.00  0.00    +0.111 A 
ATOM     24  C   UNL A   1     -11.116 205.971 112.309  0.00  0.00    +0.020 A 
ATOM     25  C   UNL A   1     -12.155 206.245 111.432  0.00  0.00    +0.012 A 
ENDBRANCH  15  16
ENDBRANCH  14  15
ENDBRANCH   3  14
TORSDOF 6
ENDMDL
MODEL 4
REMARK minimizedAffinity -7.43882513
REMARK minimizedRMSD -1
REMARK  Name = CS64
REMARK  7 active torsions:
REMARK  status: ('A' for Active; 'I' for Inactive)
REMARK    1  A    between atoms: N_1  and  C_2
REMARK    2  A    between atoms: C_3  and  C_12
REMARK    3  A    between atoms: C_6  and  S_7
REMARK    4  A    between atoms: S_7  and  C_8
REMARK    5  A    between atoms: C_8  and  C_9
REMARK    6  A    between atoms: C_12  and  O_13
REMARK    7  A    between atoms: O_13  and  C_14
REMARK                            x       y       z     vdW  Elec       q    Type
REMARK                         _______ _______ _______ _____ _____    ______ ____
ROOT
ATOM      1  N   UNL A   1     -13.114 205.439 117.590  0.00  0.00    -0.306 N 
ATOM      2  C   UNL A   1     -12.465 204.373 116.879  0.00  0.00    +0.153 C 
ATOM      3  C   UNL A   1     -13.061 206.802 117.335  0.00  0.00    +0.172 A 
ATOM      4  N   UNL A   1     -13.828 207.427 118.208  0.00  0.00    -0.130 NA
ATOM      5  N   UNL A   1     -14.391 206.491 119.043  0.00  0.00    -0.122 NA
ATOM      6  C   UNL A   1     -13.981 205.316 118.669  0.00  0.00    +0.192 A 
ENDROOT
BRANCH   6   7
ATOM      7  S   UNL A   1     -14.402 203.831 119.476  0.00  0.00    -0.077 S 
BRANCH   7   8
ATOM      8  C   UNL A   1     -15.058 202.732 118.164  0.00  0.00    +0.172 C 
BRANCH   8   9
ATOM      9  C   UNL A   1     -16.261 203.315 117.467  0.00  0.00    +0.221 C 
ATOM     10  O   UNL A   1     -16.218 203.944 116.391  0.00  0.00    -0.275 OA
ATOM     11  N   UNL A   1     -17.447 203.075 118.076  0.00  0.00    -0.329 N 
ATOM     12  H   UNL A   1     -17.520 202.579 118.963  0.00  0.00    +0.145 HD
ATOM     13  H   UNL A   1     -18.285 203.447 117.659  0.00  0.00    +0.145 HD
ENDBRANCH   8   9
ENDBRANCH   7   8
ENDBRANCH   6   7
BRANCH   3  14
ATOM     14  C   UNL A   1     -12.263 207.515 116.287  0.00  0.00    +0.305 C 
BRANCH  14  15
ATOM     15  O   UNL A   1     -13.127 207.743 115.173  0.00  0.00    -0.482 OA
BRANCH  15  16
ATOM     16  C   UNL A   1     -12.898 206.950 114.065  0.00  0.00    +0.147 A 
ATOM     17  C   UNL A   1     -11.595 206.612 113.662  0.00  0.00    +0.048 A 
ATOM     18  C   UNL A   1     -11.399 205.738 112.601  0.00  0.00    +0.004 A 
ATOM     19  C   UNL A   1     -12.500 205.223 111.923  0.00  0.00    +0.010 A 
ATOM     20  C   UNL A   1     -13.806 205.580 112.298  0.00  0.00    +0.004 A 
ATOM     21  C   UNL A   1     -14.031 206.465 113.378  0.00  0.00    +0.113 A 
ATOM     22  N   UNL A   1     -15.292 206.775 113.769  0.00  0.00    -0.251 NA
ATOM     23  C   UNL A   1     -16.336 206.238 113.101  0.00  0.00    +0.111 A 
ATOM     24  C   UNL A   1     -16.202 205.378 112.032  0.00  0.00    +0.020 A 
ATOM     25  C   UNL A   1     -14.918 205.043 111.629  0.00  0.00    +0.012 A 
ENDBRANCH  15  16
ENDBRANCH  14  15
ENDBRANCH   3  14
TORSDOF 6
ENDMDL
MODEL 5
REMARK minimizedAffinity -7.39794731
REMARK minimizedRMSD -1
REMARK  Name = CS64
REMARK  7 active torsions:
REMARK  status: ('A' for Active; 'I' for Inactive)
REMARK    1  A    between atoms: N_1  and  C_2
REMARK    2  A    between atoms: C_3  and  C_12
REMARK    3  A    between atoms: C_6  and  S_7
REMARK    4  A    between atoms: S_7  and  C_8
REMARK    5  A    between atoms: C_8  and  C_9
REMARK    6  A    between atoms: C_12  and  O_13
REMARK    7  A    between atoms: O_13  and  C_14
REMARK                            x       y       z     vdW  Elec       q    Type
REMARK                         _______ _______ _______ _____ _____    ______ ____
ROOT
ATOM      1  N   UNL A   1     -10.561 206.207 116.648  0.00  0.00    -0.306 N 
ATOM      2  C   UNL A   1     -10.146 207.552 116.938  0.00  0.00    +0.153 C 
ATOM      3  C   UNL A   1     -10.724 205.604 115.409  0.00  0.00    +0.172 A 
ATOM      4  N   UNL A   1     -11.088 204.349 115.592  0.00  0.00    -0.130 NA
ATOM      5  N   UNL A   1     -11.170 204.112 116.943  0.00  0.00    -0.122 NA
ATOM      6  C   UNL A   1     -10.845 205.205 117.567  0.00  0.00    +0.192 A 
ENDROOT
BRANCH   6   7
ATOM      7  S   UNL A   1     -10.858 205.382 119.300  0.00  0.00    -0.077 S 
BRANCH   7   8
ATOM      8  C   UNL A   1     -12.624 205.552 119.760  0.00  0.00    +0.172 C 
BRANCH   8   9
ATOM      9  C   UNL A   1     -13.262 206.783 119.167  0.00  0.00    +0.221 C 
ATOM     10  O   UNL A   1     -14.276 206.773 118.442  0.00  0.00    -0.275 OA
ATOM     11  N   UNL A   1     -12.674 207.954 119.510  0.00  0.00    -0.329 N 
ATOM     12  H   UNL A   1     -11.836 208.001 120.087  0.00  0.00    +0.145 HD
ATOM     13  H   UNL A   1     -13.053 208.809 119.137  0.00  0.00    +0.145 HD
ENDBRANCH   8   9
ENDBRANCH   7   8
ENDBRANCH   6   7
BRANCH   3  14
ATOM     14  C   UNL A   1     -10.564 206.223 114.053  0.00  0.00    +0.305 C 
BRANCH  14  15
ATOM     15  O   UNL A   1     -11.009 205.265 113.092  0.00  0.00    -0.482 OA
BRANCH  15  16
ATOM     16  C   UNL A   1     -11.809 205.760 112.080  0.00  0.00    +0.147 A 
ATOM     17  C   UNL A   1     -11.262 206.438 110.978  0.00  0.00    +0.048 A 
ATOM     18  C   UNL A   1     -12.081 206.842 109.932  0.00  0.00    +0.004 A 
ATOM     19  C   UNL A   1     -13.449 206.595 109.996  0.00  0.00    +0.010 A 
ATOM     20  C   UNL A   1     -14.010 205.945 111.108  0.00  0.00    +0.004 A 
ATOM     21  C   UNL A   1     -13.196 205.522 112.184  0.00  0.00    +0.113 A 
ATOM     22  N   UNL A   1     -13.730 204.855 113.238  0.00  0.00    -0.251 NA
ATOM     23  C   UNL A   1     -15.059 204.614 113.255  0.00  0.00    +0.111 A 
ATOM     24  C   UNL A   1     -15.923 205.005 112.253  0.00  0.00    +0.020 A 
ATOM     25  C   UNL A   1     -15.387 205.676 111.163  0.00  0.00    +0.012 A 
ENDBRANCH  15  16
ENDBRANCH  14  15
ENDBRANCH   3  14
TORSDOF 6
ENDMDL
MODEL 6
REMARK minimizedAffinity -7.38743162
REMARK minimizedRMSD -1
REMARK  Name = CS64
REMARK  7 active torsions:
REMARK  status: ('A' for Active; 'I' for Inactive)
REMARK    1  A    between atoms: N_1  and  C_2
REMARK    2  A    between atoms: C_3  and  C_12
REMARK    3  A    between atoms: C_6  and  S_7
REMARK    4  A    between atoms: S_7  and  C_8
REMARK    5  A    between atoms: C_8  and  C_9
REMARK    6  A    between atoms: C_12  and  O_13
REMARK    7  A    between atoms: O_13  and  C_14
REMARK                            x       y       z     vdW  Elec       q    Type
REMARK                         _______ _______ _______ _____ _____    ______ ____
ROOT
ATOM      1  N   UNL A   1     -16.082 203.142 119.048  0.00  0.00    -0.306 N 
ATOM      2  C   UNL A   1     -14.958 203.580 119.830  0.00  0.00    +0.153 C 
ATOM      3  C   UNL A   1     -16.193 203.069 117.667  0.00  0.00    +0.172 A 
ATOM      4  N   UNL A   1     -17.382 202.584 117.363  0.00  0.00    -0.130 NA
ATOM      5  N   UNL A   1     -18.063 202.335 118.530  0.00  0.00    -0.122 NA
ATOM      6  C   UNL A   1     -17.290 202.651 119.526  0.00  0.00    +0.192 A 
ENDROOT
BRANCH   6   7
ATOM      7  S   UNL A   1     -17.759 202.546 121.200  0.00  0.00    -0.077 S 
BRANCH   7   8
ATOM      8  C   UNL A   1     -19.402 203.353 121.298  0.00  0.00    +0.172 C 
BRANCH   8   9
ATOM      9  C   UNL A   1     -20.537 202.361 121.281  0.00  0.00    +0.221 C 
ATOM     10  O   UNL A   1     -20.445 201.190 120.863  0.00  0.00    -0.275 OA
ATOM     11  N   UNL A   1     -21.702 202.814 121.803  0.00  0.00    -0.329 N 
ATOM     12  H   UNL A   1     -21.820 203.769 122.140  0.00  0.00    +0.145 HD
ATOM     13  H   UNL A   1     -22.497 202.196 121.811  0.00  0.00    +0.145 HD
ENDBRANCH   8   9
ENDBRANCH   7   8
ENDBRANCH   6   7
BRANCH   3  14
ATOM     14  C   UNL A   1     -15.189 203.485 116.636  0.00  0.00    +0.305 C 
BRANCH  14  15
ATOM     15  O   UNL A   1     -15.848 204.370 115.730  0.00  0.00    -0.482 OA
BRANCH  15  16
ATOM     16  C   UNL A   1     -15.093 204.797 114.655  0.00  0.00    +0.147 A 
ATOM     17  C   UNL A   1     -13.703 204.595 114.607  0.00  0.00    +0.048 A 
ATOM     18  C   UNL A   1     -12.985 204.950 113.474  0.00  0.00    +0.004 A 
ATOM     19  C   UNL A   1     -13.647 205.534 112.397  0.00  0.00    +0.010 A 
ATOM     20  C   UNL A   1     -15.031 205.770 112.447  0.00  0.00    +0.004 A 
ATOM     21  C   UNL A   1     -15.783 205.413 113.589  0.00  0.00    +0.113 A 
ATOM     22  N   UNL A   1     -17.127 205.599 113.621  0.00  0.00    -0.251 NA
ATOM     23  C   UNL A   1     -17.738 206.148 112.548  0.00  0.00    +0.111 A 
ATOM     24  C   UNL A   1     -17.074 206.535 111.403  0.00  0.00    +0.020 A 
ATOM     25  C   UNL A   1     -15.703 206.338 111.352  0.00  0.00    +0.012 A 
ENDBRANCH  15  16
ENDBRANCH  14  15
ENDBRANCH   3  14
TORSDOF 6
ENDMDL
MODEL 7
REMARK minimizedAffinity -7.16047812
REMARK minimizedRMSD -1
REMARK  Name = CS64
REMARK  7 active torsions:
REMARK  status: ('A' for Active; 'I' for Inactive)
REMARK    1  A    between atoms: N_1  and  C_2
REMARK    2  A    between atoms: C_3  and  C_12
REMARK    3  A    between atoms: C_6  and  S_7
REMARK    4  A    between atoms: S_7  and  C_8
REMARK    5  A    between atoms: C_8  and  C_9
REMARK    6  A    between atoms: C_12  and  O_13
REMARK    7  A    between atoms: O_13  and  C_14
REMARK                            x       y       z     vdW  Elec       q    Type
REMARK                         _______ _______ _______ _____ _____    ______ ____
ROOT
ATOM      1  N   UNL A   1     -14.883 204.183 118.145  0.00  0.00    -0.306 N 
ATOM      2  C   UNL A   1     -13.773 204.937 118.658  0.00  0.00    +0.153 C 
ATOM      3  C   UNL A   1     -15.389 204.167 116.853  0.00  0.00    +0.172 A 
ATOM      4  N   UNL A   1     -16.395 203.314 116.802  0.00  0.00    -0.130 NA
ATOM      5  N   UNL A   1     -16.563 202.763 118.050  0.00  0.00    -0.122 NA
ATOM      6  C   UNL A   1     -15.661 203.266 118.839  0.00  0.00    +0.192 A 
ENDROOT
BRANCH   6   7
ATOM      7  S   UNL A   1     -15.529 202.891 120.536  0.00  0.00    -0.077 S 
BRANCH   7   8
ATOM      8  C   UNL A   1     -16.390 204.256 121.405  0.00  0.00    +0.172 C 
BRANCH   8   9
ATOM      9  C   UNL A   1     -17.865 203.995 121.575  0.00  0.00    +0.221 C 
ATOM     10  O   UNL A   1     -18.478 204.084 122.657  0.00  0.00    -0.275 OA
ATOM     11  N   UNL A   1     -18.527 203.687 120.434  0.00  0.00    -0.329 N 
ATOM     12  H   UNL A   1     -18.058 203.591 119.534  0.00  0.00    +0.145 HD
ATOM     13  H   UNL A   1     -19.514 203.495 120.489  0.00  0.00    +0.145 HD
ENDBRANCH   8   9
ENDBRANCH   7   8
ENDBRANCH   6   7
BRANCH   3  14
ATOM     14  C   UNL A   1     -14.941 204.978 115.675  0.00  0.00    +0.305 C 
BRANCH  14  15
ATOM     15  O   UNL A   1     -15.210 204.212 114.501  0.00  0.00    -0.482 OA
BRANCH  15  16
ATOM     16  C   UNL A   1     -15.526 204.940 113.370  0.00  0.00    +0.147 A 
ATOM     17  C   UNL A   1     -16.845 205.344 113.103  0.00  0.00    +0.048 A 
ATOM     18  C   UNL A   1     -17.118 206.154 112.009  0.00  0.00    +0.004 A 
ATOM     19  C   UNL A   1     -16.081 206.539 111.164  0.00  0.00    +0.010 A 
ATOM     20  C   UNL A   1     -14.763 206.113 111.404  0.00  0.00    +0.004 A 
ATOM     21  C   UNL A   1     -14.461 205.292 112.514  0.00  0.00    +0.113 A 
ATOM     22  N   UNL A   1     -13.183 204.918 112.773  0.00  0.00    -0.251 NA
ATOM     23  C   UNL A   1     -12.200 205.328 111.942  0.00  0.00    +0.111 A 
ATOM     24  C   UNL A   1     -12.413 206.119 110.833  0.00  0.00    +0.020 A 
ATOM     25  C   UNL A   1     -13.713 206.519 110.565  0.00  0.00    +0.012 A 
ENDBRANCH  15  16
ENDBRANCH  14  15
ENDBRANCH   3  14
TORSDOF 6
ENDMDL
MODEL 8
REMARK minimizedAffinity -7.10280561
REMARK minimizedRMSD -1
REMARK  Name = CS64
REMARK  7 active torsions:
REMARK  status: ('A' for Active; 'I' for Inactive)
REMARK    1  A    between atoms: N_1  and  C_2
REMARK    2  A    between atoms: C_3  and  C_12
REMARK    3  A    between atoms: C_6  and  S_7
REMARK    4  A    between atoms: S_7  and  C_8
REMARK    5  A    between atoms: C_8  and  C_9
REMARK    6  A    between atoms: C_12  and  O_13
REMARK    7  A    between atoms: O_13  and  C_14
REMARK                            x       y       z     vdW  Elec       q    Type
REMARK                         _______ _______ _______ _____ _____    ______ ____
ROOT
ATOM      1  N   UNL A   1     -13.855 203.984 117.826  0.00  0.00    -0.306 N 
ATOM      2  C   UNL A   1     -12.518 204.318 118.233  0.00  0.00    +0.153 C 
ATOM      3  C   UNL A   1     -14.392 203.984 116.547  0.00  0.00    +0.172 A 
ATOM      4  N   UNL A   1     -15.647 203.583 116.614  0.00  0.00    -0.130 NA
ATOM      5  N   UNL A   1     -15.950 203.316 117.927  0.00  0.00    -0.122 NA
ATOM      6  C   UNL A   1     -14.888 203.539 118.641  0.00  0.00    +0.192 A 
ENDROOT
BRANCH   6   7
ATOM      7  S   UNL A   1     -14.824 203.380 120.375  0.00  0.00    -0.077 S 
BRANCH   7   8
ATOM      8  C   UNL A   1     -15.395 204.992 121.034  0.00  0.00    +0.172 C 
BRANCH   8   9
ATOM      9  C   UNL A   1     -14.419 206.108 120.760  0.00  0.00    +0.221 C 
ATOM     10  O   UNL A   1     -14.478 206.871 119.775  0.00  0.00    -0.275 OA
ATOM     11  N   UNL A   1     -13.459 206.274 121.701  0.00  0.00    -0.329 N 
ATOM     12  H   UNL A   1     -13.370 205.661 122.511  0.00  0.00    +0.145 HD
ATOM     13  H   UNL A   1     -12.775 207.000 121.566  0.00  0.00    +0.145 HD
ENDBRANCH   8   9
ENDBRANCH   7   8
ENDBRANCH   6   7
BRANCH   3  14
ATOM     14  C   UNL A   1     -13.728 204.392 115.267  0.00  0.00    +0.305 C 
BRANCH  14  15
ATOM     15  O   UNL A   1     -14.558 203.946 114.194  0.00  0.00    -0.482 OA
BRANCH  15  16
ATOM     16  C   UNL A   1     -14.567 204.750 113.071  0.00  0.00    +0.147 A 
ATOM     17  C   UNL A   1     -13.416 204.926 112.285  0.00  0.00    +0.048 A 
ATOM     18  C   UNL A   1     -13.480 205.664 111.111  0.00  0.00    +0.004 A 
ATOM     19  C   UNL A   1     -14.684 206.251 110.734  0.00  0.00    +0.010 A 
ATOM     20  C   UNL A   1     -15.834 206.108 111.529  0.00  0.00    +0.004 A 
ATOM     21  C   UNL A   1     -15.794 205.358 112.727  0.00  0.00    +0.113 A 
ATOM     22  N   UNL A   1     -16.913 205.181 113.472  0.00  0.00    -0.251 NA
ATOM     23  C   UNL A   1     -18.069 205.748 113.063  0.00  0.00    +0.111 A 
ATOM     24  C   UNL A   1     -18.188 206.504 111.916  0.00  0.00    +0.020 A 
ATOM     25  C   UNL A   1     -17.054 206.681 111.137  0.00  0.00    +0.012 A 
ENDBRANCH  15  16
ENDBRANCH  14  15
ENDBRANCH   3  14
TORSDOF 6
ENDMDL
MODEL 9
REMARK minimizedAffinity -7.09145641
REMARK minimizedRMSD -1
REMARK  Name = CS64
REMARK  7 active torsions:
REMARK  status: ('A' for Active; 'I' for Inactive)
REMARK    1  A    between atoms: N_1  and  C_2
REMARK    2  A    between atoms: C_3  and  C_12
REMARK    3  A    between atoms: C_6  and  S_7
REMARK    4  A    between atoms: S_7  and  C_8
REMARK    5  A    between atoms: C_8  and  C_9
REMARK    6  A    between atoms: C_12  and  O_13
REMARK    7  A    between atoms: O_13  and  C_14
REMARK                            x       y       z     vdW  Elec       q    Type
REMARK                         _______ _______ _______ _____ _____    ______ ____
ROOT
ATOM      1  N   UNL A   1     -14.352 203.948 116.930  0.00  0.00    -0.306 N 
ATOM      2  C   UNL A   1     -12.994 203.811 117.377  0.00  0.00    +0.153 C 
ATOM      3  C   UNL A   1     -14.846 204.741 115.904  0.00  0.00    +0.172 A 
ATOM      4  N   UNL A   1     -16.148 204.546 115.807  0.00  0.00    -0.130 NA
ATOM      5  N   UNL A   1     -16.524 203.630 116.760  0.00  0.00    -0.122 NA
ATOM      6  C   UNL A   1     -15.462 203.267 117.414  0.00  0.00    +0.192 A 
ENDROOT
BRANCH   6   7
ATOM      7  S   UNL A   1     -15.473 202.153 118.754  0.00  0.00    -0.077 S 
BRANCH   7   8
ATOM      8  C   UNL A   1     -16.168 203.094 120.165  0.00  0.00    +0.172 C 
BRANCH   8   9
ATOM      9  C   UNL A   1     -17.635 202.818 120.378  0.00  0.00    +0.221 C 
ATOM     10  O   UNL A   1     -18.130 202.419 121.450  0.00  0.00    -0.275 OA
ATOM     11  N   UNL A   1     -18.427 203.079 119.311  0.00  0.00    -0.329 N 
ATOM     12  H   UNL A   1     -18.058 203.392 118.414  0.00  0.00    +0.145 HD
ATOM     13  H   UNL A   1     -19.416 202.906 119.394  0.00  0.00    +0.145 HD
ENDBRANCH   8   9
ENDBRANCH   7   8
ENDBRANCH   6   7
BRANCH   3  14
ATOM     14  C   UNL A   1     -14.094 205.703 115.037  0.00  0.00    +0.305 C 
BRANCH  14  15
ATOM     15  O   UNL A   1     -13.278 204.934 114.153  0.00  0.00    -0.482 OA
BRANCH  15  16
ATOM     16  C   UNL A   1     -12.137 205.563 113.692  0.00  0.00    +0.147 A 
ATOM     17  C   UNL A   1     -10.993 205.689 114.498  0.00  0.00    +0.048 A 
ATOM     18  C   UNL A   1      -9.831 206.242 113.977  0.00  0.00    +0.004 A 
ATOM     19  C   UNL A   1      -9.817 206.696 112.661  0.00  0.00    +0.010 A 
ATOM     20  C   UNL A   1     -10.965 206.604 111.857  0.00  0.00    +0.004 A 
ATOM     21  C   UNL A   1     -12.159 206.041 112.365  0.00  0.00    +0.113 A 
ATOM     22  N   UNL A   1     -13.255 205.911 111.576  0.00  0.00    -0.251 NA
ATOM     23  C   UNL A   1     -13.196 206.343 110.297  0.00  0.00    +0.111 A 
ATOM     24  C   UNL A   1     -12.076 206.914 109.731  0.00  0.00    +0.020 A 
ATOM     25  C   UNL A   1     -10.945 207.042 110.523  0.00  0.00    +0.012 A 
ENDBRANCH  15  16
ENDBRANCH  14  15
ENDBRANCH   3  14
TORSDOF 6
ENDMDL
