MODEL 1
REMARK minimizedAffinity -7.68428278
REMARK minimizedRMSD -1
REMARK  Name = CS66
REMARK  9 active torsions:
REMARK  status: ('A' for Active; 'I' for Inactive)
REMARK    1  A    between atoms: N_1  and  C_2
REMARK    2  A    between atoms: C_4  and  C_8
REMARK    3  A    between atoms: C_8  and  C_10
REMARK    4  A    between atoms: C_11  and  C_13
REMARK    5  A    between atoms: C_13  and  S_14
REMARK    6  A    between atoms: S_14  and  C_15
REMARK    7  A    between atoms: C_18  and  C_22
REMARK    8  A    between atoms: N_19  and  C_20
REMARK    9  A    between atoms: C_20  and  C_21
REMARK                            x       y       z     vdW  Elec       q    Type
REMARK                         _______ _______ _______ _____ _____    ______ ____
ROOT
ATOM      1  C   UNL A   1     -11.637 207.007 118.812  0.00  0.00    +0.173 C 
ENDROOT
BRANCH   1   3
ATOM      2  N   UNL A   1     -11.081 207.890 116.572  0.00  0.00    -0.285 N 
ATOM      3  C   UNL A   1     -10.877 206.879 117.498  0.00  0.00    +0.228 C 
ATOM      4  O   UNL A   1     -10.178 205.883 117.306  0.00  0.00    -0.275 OA
ATOM      5  H   UNL A   1     -11.513 208.736 116.926  0.00  0.00    +0.155 HD
BRANCH   2   6
ATOM      6  C   UNL A   1     -10.562 207.932 115.258  0.00  0.00    +0.034 A 
ATOM      7  C   UNL A   1     -11.110 207.198 114.201  0.00  0.00    +0.034 A 
ATOM      8  C   UNL A   1     -10.522 207.218 112.932  0.00  0.00    +0.019 A 
ATOM      9  C   UNL A   1      -9.405 208.027 112.700  0.00  0.00    +0.011 A 
ATOM     10  C   UNL A   1      -8.873 208.793 113.737  0.00  0.00    +0.003 A 
ATOM     11  C   UNL A   1      -9.451 208.748 115.010  0.00  0.00    +0.023 A 
BRANCH   8  12
ATOM     12  C   UNL A   1     -11.051 206.396 111.814  0.00  0.00    +0.160 C 
ATOM     13  O   UNL A   1     -11.553 205.300 112.055  0.00  0.00    -0.292 OA
ATOM     14  C   UNL A   1     -10.992 206.924 110.401  0.00  0.00    +0.091 C 
ENDBRANCH   8  12
ENDBRANCH   2   6
ENDBRANCH   1   3
BRANCH   1  15
ATOM     15  S   UNL A   1     -13.156 206.012 118.890  0.00  0.00    -0.077 S 
BRANCH  15  16
ATOM     16  C   UNL A   1     -13.946 206.530 117.434  0.00  0.00    +0.192 A 
ATOM     17  N   UNL A   1     -14.368 207.759 117.254  0.00  0.00    -0.122 NA
ATOM     18  N   UNL A   1     -14.913 207.840 116.010  0.00  0.00    -0.128 NA
ATOM     19  C   UNL A   1     -14.851 206.653 115.431  0.00  0.00    +0.165 A 
ATOM     20  N   UNL A   1     -14.222 205.772 116.318  0.00  0.00    -0.302 N 
BRANCH  19  21
ATOM     21  C   UNL A   1     -15.342 206.418 114.061  0.00  0.00    +0.022 A 
ATOM     22  C   UNL A   1     -16.622 205.868 113.901  0.00  0.00    +0.031 A 
ATOM     23  C   UNL A   1     -17.081 205.566 112.628  0.00  0.00    +0.111 A 
ATOM     24  N   UNL A   1     -16.364 205.781 111.509  0.00  0.00    -0.263 NA
ATOM     25  C   UNL A   1     -15.129 206.292 111.674  0.00  0.00    +0.111 A 
ATOM     26  C   UNL A   1     -14.580 206.613 112.909  0.00  0.00    +0.031 A 
ENDBRANCH  19  21
BRANCH  20  27
ATOM     27  C   UNL A   1     -13.918 204.390 116.006  0.00  0.00    +0.122 C 
ATOM     28  C   UNL A   1     -14.910 203.277 116.307  0.00  0.00    +0.027 C 
ENDBRANCH  20  27
ENDBRANCH  15  16
ENDBRANCH   1  15
TORSDOF 7
ENDMDL
MODEL 2
REMARK minimizedAffinity -7.54239464
REMARK minimizedRMSD -1
REMARK  Name = CS66
REMARK  9 active torsions:
REMARK  status: ('A' for Active; 'I' for Inactive)
REMARK    1  A    between atoms: N_1  and  C_2
REMARK    2  A    between atoms: C_4  and  C_8
REMARK    3  A    between atoms: C_8  and  C_10
REMARK    4  A    between atoms: C_11  and  C_13
REMARK    5  A    between atoms: C_13  and  S_14
REMARK    6  A    between atoms: S_14  and  C_15
REMARK    7  A    between atoms: C_18  and  C_22
REMARK    8  A    between atoms: N_19  and  C_20
REMARK    9  A    between atoms: C_20  and  C_21
REMARK                            x       y       z     vdW  Elec       q    Type
REMARK                         _______ _______ _______ _____ _____    ______ ____
ROOT
ATOM      1  C   UNL A   1     -15.112 203.983 117.336  0.00  0.00    +0.173 C 
ENDROOT
BRANCH   1   3
ATOM      2  N   UNL A   1     -14.066 204.186 115.107  0.00  0.00    -0.285 N 
ATOM      3  C   UNL A   1     -15.173 204.466 115.892  0.00  0.00    +0.228 C 
ATOM      4  O   UNL A   1     -16.154 205.110 115.517  0.00  0.00    -0.275 OA
ATOM      5  H   UNL A   1     -13.428 203.488 115.471  0.00  0.00    +0.155 HD
BRANCH   2   6
ATOM      6  C   UNL A   1     -13.860 204.617 113.776  0.00  0.00    +0.034 A 
ATOM      7  C   UNL A   1     -12.745 205.366 113.386  0.00  0.00    +0.034 A 
ATOM      8  C   UNL A   1     -12.615 205.829 112.071  0.00  0.00    +0.019 A 
ATOM      9  C   UNL A   1     -13.583 205.489 111.120  0.00  0.00    +0.011 A 
ATOM     10  C   UNL A   1     -14.679 204.710 111.490  0.00  0.00    +0.003 A 
ATOM     11  C   UNL A   1     -14.815 204.273 112.812  0.00  0.00    +0.023 A 
BRANCH   8  12
ATOM     12  C   UNL A   1     -11.472 206.679 111.653  0.00  0.00    +0.160 C 
ATOM     13  O   UNL A   1     -10.830 207.290 112.505  0.00  0.00    -0.292 OA
ATOM     14  C   UNL A   1     -11.095 206.764 110.193  0.00  0.00    +0.091 C 
ENDBRANCH   8  12
ENDBRANCH   2   6
ENDBRANCH   1   3
BRANCH   1  15
ATOM     15  S   UNL A   1     -15.391 202.198 117.533  0.00  0.00    -0.077 S 
BRANCH  15  16
ATOM     16  C   UNL A   1     -17.025 202.198 118.120  0.00  0.00    +0.192 A 
ATOM     17  N   UNL A   1     -18.047 201.847 117.377  0.00  0.00    -0.122 NA
ATOM     18  N   UNL A   1     -19.172 201.934 118.138  0.00  0.00    -0.128 NA
ATOM     19  C   UNL A   1     -18.847 202.363 119.345  0.00  0.00    +0.165 A 
ATOM     20  N   UNL A   1     -17.459 202.541 119.382  0.00  0.00    -0.302 N 
BRANCH  19  21
ATOM     21  C   UNL A   1     -19.846 202.540 120.414  0.00  0.00    +0.022 A 
ATOM     22  C   UNL A   1     -20.314 201.399 121.081  0.00  0.00    +0.031 A 
ATOM     23  C   UNL A   1     -21.309 201.527 122.038  0.00  0.00    +0.111 A 
ATOM     24  N   UNL A   1     -21.860 202.705 122.384  0.00  0.00    -0.263 NA
ATOM     25  C   UNL A   1     -21.417 203.793 121.725  0.00  0.00    +0.111 A 
ATOM     26  C   UNL A   1     -20.436 203.761 120.743  0.00  0.00    +0.031 A 
ENDBRANCH  19  21
BRANCH  20  27
ATOM     27  C   UNL A   1     -16.726 202.944 120.564  0.00  0.00    +0.122 C 
ATOM     28  C   UNL A   1     -16.618 202.031 121.776  0.00  0.00    +0.027 C 
ENDBRANCH  20  27
ENDBRANCH  15  16
ENDBRANCH   1  15
TORSDOF 7
ENDMDL
MODEL 3
REMARK minimizedAffinity -7.45054865
REMARK minimizedRMSD -1
REMARK  Name = CS66
REMARK  9 active torsions:
REMARK  status: ('A' for Active; 'I' for Inactive)
REMARK    1  A    between atoms: N_1  and  C_2
REMARK    2  A    between atoms: C_4  and  C_8
REMARK    3  A    between atoms: C_8  and  C_10
REMARK    4  A    between atoms: C_11  and  C_13
REMARK    5  A    between atoms: C_13  and  S_14
REMARK    6  A    between atoms: S_14  and  C_15
REMARK    7  A    between atoms: C_18  and  C_22
REMARK    8  A    between atoms: N_19  and  C_20
REMARK    9  A    between atoms: C_20  and  C_21
REMARK                            x       y       z     vdW  Elec       q    Type
REMARK                         _______ _______ _______ _____ _____    ______ ____
ROOT
ATOM      1  C   UNL A   1     -11.401 206.571 116.397  0.00  0.00    +0.173 C 
ENDROOT
BRANCH   1   3
ATOM      2  N   UNL A   1     -12.719 206.821 114.321  0.00  0.00    -0.285 N 
ATOM      3  C   UNL A   1     -12.255 205.952 115.297  0.00  0.00    +0.228 C 
ATOM      4  O   UNL A   1     -12.530 204.753 115.355  0.00  0.00    -0.275 OA
ATOM      5  H   UNL A   1     -12.263 207.726 114.279  0.00  0.00    +0.155 HD
BRANCH   2   6
ATOM      6  C   UNL A   1     -13.601 206.494 113.266  0.00  0.00    +0.034 A 
ATOM      7  C   UNL A   1     -14.992 206.556 113.393  0.00  0.00    +0.034 A 
ATOM      8  C   UNL A   1     -15.828 206.157 112.343  0.00  0.00    +0.019 A 
ATOM      9  C   UNL A   1     -15.266 205.746 111.131  0.00  0.00    +0.011 A 
ATOM     10  C   UNL A   1     -13.880 205.717 110.980  0.00  0.00    +0.003 A 
ATOM     11  C   UNL A   1     -13.050 206.092 112.043  0.00  0.00    +0.023 A 
BRANCH   8  12
ATOM     12  C   UNL A   1     -17.306 206.155 112.481  0.00  0.00    +0.160 C 
ATOM     13  O   UNL A   1     -17.827 205.519 113.395  0.00  0.00    -0.292 OA
ATOM     14  C   UNL A   1     -18.151 206.953 111.517  0.00  0.00    +0.091 C 
ENDBRANCH   8  12
ENDBRANCH   2   6
ENDBRANCH   1   3
BRANCH   1  15
ATOM     15  S   UNL A   1     -10.782 208.234 116.007  0.00  0.00    -0.077 S 
BRANCH  15  16
ATOM     16  C   UNL A   1      -9.131 207.870 115.611  0.00  0.00    +0.192 A 
ATOM     17  N   UNL A   1      -8.291 207.354 116.476  0.00  0.00    -0.122 NA
ATOM     18  N   UNL A   1      -7.098 207.170 115.847  0.00  0.00    -0.128 NA
ATOM     19  C   UNL A   1      -7.196 207.596 114.599  0.00  0.00    +0.165 A 
ATOM     20  N   UNL A   1      -8.504 208.052 114.399  0.00  0.00    -0.302 N 
BRANCH  19  21
ATOM     21  C   UNL A   1      -6.073 207.510 113.648  0.00  0.00    +0.022 A 
ATOM     22  C   UNL A   1      -4.883 208.181 113.965  0.00  0.00    +0.031 A 
ATOM     23  C   UNL A   1      -3.836 208.181 113.056  0.00  0.00    +0.111 A 
ATOM     24  N   UNL A   1      -3.887 207.556 111.864  0.00  0.00    -0.263 NA
ATOM     25  C   UNL A   1      -5.040 206.931 111.562  0.00  0.00    +0.111 A 
ATOM     26  C   UNL A   1      -6.145 206.888 112.402  0.00  0.00    +0.031 A 
ENDBRANCH  19  21
BRANCH  20  27
ATOM     27  C   UNL A   1      -9.005 208.538 113.130  0.00  0.00    +0.122 C 
ATOM     28  C   UNL A   1      -9.787 207.633 112.192  0.00  0.00    +0.027 C 
ENDBRANCH  20  27
ENDBRANCH  15  16
ENDBRANCH   1  15
TORSDOF 7
ENDMDL
MODEL 4
REMARK minimizedAffinity -7.2201643
REMARK minimizedRMSD -1
REMARK  Name = CS66
REMARK  9 active torsions:
REMARK  status: ('A' for Active; 'I' for Inactive)
REMARK    1  A    between atoms: N_1  and  C_2
REMARK    2  A    between atoms: C_4  and  C_8
REMARK    3  A    between atoms: C_8  and  C_10
REMARK    4  A    between atoms: C_11  and  C_13
REMARK    5  A    between atoms: C_13  and  S_14
REMARK    6  A    between atoms: S_14  and  C_15
REMARK    7  A    between atoms: C_18  and  C_22
REMARK    8  A    between atoms: N_19  and  C_20
REMARK    9  A    between atoms: C_20  and  C_21
REMARK                            x       y       z     vdW  Elec       q    Type
REMARK                         _______ _______ _______ _____ _____    ______ ____
ROOT
ATOM      1  C   UNL A   1     -14.559 204.281 116.948  0.00  0.00    +0.173 C 
ENDROOT
BRANCH   1   3
ATOM      2  N   UNL A   1     -14.046 204.625 114.555  0.00  0.00    -0.285 N 
ATOM      3  C   UNL A   1     -14.958 204.823 115.581  0.00  0.00    +0.228 C 
ATOM      4  O   UNL A   1     -16.017 205.441 115.467  0.00  0.00    -0.275 OA
ATOM      5  H   UNL A   1     -13.321 203.939 114.732  0.00  0.00    +0.155 HD
BRANCH   2   6
ATOM      6  C   UNL A   1     -14.157 205.122 113.236  0.00  0.00    +0.034 A 
ATOM      7  C   UNL A   1     -13.057 205.575 112.502  0.00  0.00    +0.034 A 
ATOM      8  C   UNL A   1     -13.222 206.121 111.224  0.00  0.00    +0.019 A 
ATOM      9  C   UNL A   1     -14.496 206.162 110.649  0.00  0.00    +0.011 A 
ATOM     10  C   UNL A   1     -15.596 205.677 111.358  0.00  0.00    +0.003 A 
ATOM     11  C   UNL A   1     -15.426 205.156 112.645  0.00  0.00    +0.023 A 
BRANCH   8  12
ATOM     12  C   UNL A   1     -12.076 206.667 110.454  0.00  0.00    +0.160 C 
ATOM     13  O   UNL A   1     -12.283 207.244 109.389  0.00  0.00    -0.292 OA
ATOM     14  C   UNL A   1     -10.674 206.531 110.999  0.00  0.00    +0.091 C 
ENDBRANCH   8  12
ENDBRANCH   2   6
ENDBRANCH   1   3
BRANCH   1  15
ATOM     15  S   UNL A   1     -13.873 205.534 118.071  0.00  0.00    -0.077 S 
BRANCH  15  16
ATOM     16  C   UNL A   1     -12.864 206.421 116.972  0.00  0.00    +0.192 A 
ATOM     17  N   UNL A   1     -13.283 207.478 116.319  0.00  0.00    -0.122 NA
ATOM     18  N   UNL A   1     -12.250 207.948 115.568  0.00  0.00    -0.128 NA
ATOM     19  C   UNL A   1     -11.198 207.166 115.740  0.00  0.00    +0.165 A 
ATOM     20  N   UNL A   1     -11.550 206.164 116.651  0.00  0.00    -0.302 N 
BRANCH  19  21
ATOM     21  C   UNL A   1      -9.907 207.424 115.076  0.00  0.00    +0.022 A 
ATOM     22  C   UNL A   1      -9.368 208.716 115.156  0.00  0.00    +0.031 A 
ATOM     23  C   UNL A   1      -8.194 209.009 114.479  0.00  0.00    +0.111 A 
ATOM     24  N   UNL A   1      -7.517 208.108 113.742  0.00  0.00    -0.263 NA
ATOM     25  C   UNL A   1      -8.053 206.876 113.657  0.00  0.00    +0.111 A 
ATOM     26  C   UNL A   1      -9.230 206.494 114.288  0.00  0.00    +0.031 A 
ENDBRANCH  19  21
BRANCH  20  27
ATOM     27  C   UNL A   1     -10.631 205.153 117.135  0.00  0.00    +0.122 C 
ATOM     28  C   UNL A   1      -9.623 205.462 118.230  0.00  0.00    +0.027 C 
ENDBRANCH  20  27
ENDBRANCH  15  16
ENDBRANCH   1  15
TORSDOF 7
ENDMDL
MODEL 5
REMARK minimizedAffinity -7.11565256
REMARK minimizedRMSD -1
REMARK  Name = CS66
REMARK  9 active torsions:
REMARK  status: ('A' for Active; 'I' for Inactive)
REMARK    1  A    between atoms: N_1  and  C_2
REMARK    2  A    between atoms: C_4  and  C_8
REMARK    3  A    between atoms: C_8  and  C_10
REMARK    4  A    between atoms: C_11  and  C_13
REMARK    5  A    between atoms: C_13  and  S_14
REMARK    6  A    between atoms: S_14  and  C_15
REMARK    7  A    between atoms: C_18  and  C_22
REMARK    8  A    between atoms: N_19  and  C_20
REMARK    9  A    between atoms: C_20  and  C_21
REMARK                            x       y       z     vdW  Elec       q    Type
REMARK                         _______ _______ _______ _____ _____    ______ ____
ROOT
ATOM      1  C   UNL A   1     -11.445 206.372 117.836  0.00  0.00    +0.173 C 
ENDROOT
BRANCH   1   3
ATOM      2  N   UNL A   1     -11.608 206.993 115.450  0.00  0.00    -0.285 N 
ATOM      3  C   UNL A   1     -11.223 206.029 116.369  0.00  0.00    +0.228 C 
ATOM      4  O   UNL A   1     -10.774 204.920 116.074  0.00  0.00    -0.275 OA
ATOM      5  H   UNL A   1     -11.771 207.922 115.822  0.00  0.00    +0.155 HD
BRANCH   2   6
ATOM      6  C   UNL A   1     -11.586 206.857 114.043  0.00  0.00    +0.034 A 
ATOM      7  C   UNL A   1     -12.683 206.396 113.308  0.00  0.00    +0.034 A 
ATOM      8  C   UNL A   1     -12.595 206.213 111.924  0.00  0.00    +0.019 A 
ATOM      9  C   UNL A   1     -11.414 206.551 111.256  0.00  0.00    +0.011 A 
ATOM     10  C   UNL A   1     -10.326 207.049 111.973  0.00  0.00    +0.003 A 
ATOM     11  C   UNL A   1     -10.413 207.204 113.361  0.00  0.00    +0.023 A 
BRANCH   8  12
ATOM     12  C   UNL A   1     -13.727 205.664 111.136  0.00  0.00    +0.160 C 
ATOM     13  O   UNL A   1     -13.931 206.083 109.998  0.00  0.00    -0.292 OA
ATOM     14  C   UNL A   1     -14.597 204.580 111.727  0.00  0.00    +0.091 C 
ENDBRANCH   8  12
ENDBRANCH   2   6
ENDBRANCH   1   3
BRANCH   1  15
ATOM     15  S   UNL A   1     -13.122 206.962 118.214  0.00  0.00    -0.077 S 
BRANCH  15  16
ATOM     16  C   UNL A   1     -14.062 205.616 117.651  0.00  0.00    +0.192 A 
ATOM     17  N   UNL A   1     -14.496 205.519 116.417  0.00  0.00    -0.122 NA
ATOM     18  N   UNL A   1     -15.173 204.345 116.298  0.00  0.00    -0.128 NA
ATOM     19  C   UNL A   1     -15.177 203.726 117.466  0.00  0.00    +0.165 A 
ATOM     20  N   UNL A   1     -14.459 204.513 118.374  0.00  0.00    -0.302 N 
BRANCH  19  21
ATOM     21  C   UNL A   1     -15.813 202.411 117.660  0.00  0.00    +0.022 A 
ATOM     22  C   UNL A   1     -17.171 202.376 118.011  0.00  0.00    +0.031 A 
ATOM     23  C   UNL A   1     -17.777 201.157 118.272  0.00  0.00    +0.111 A 
ATOM     24  N   UNL A   1     -17.135 199.976 118.199  0.00  0.00    -0.263 NA
ATOM     25  C   UNL A   1     -15.828 200.022 117.879  0.00  0.00    +0.111 A 
ATOM     26  C   UNL A   1     -15.132 201.194 117.613  0.00  0.00    +0.031 A 
ENDBRANCH  19  21
BRANCH  20  27
ATOM     27  C   UNL A   1     -14.196 204.128 119.746  0.00  0.00    +0.122 C 
ATOM     28  C   UNL A   1     -15.064 204.633 120.888  0.00  0.00    +0.027 C 
ENDBRANCH  20  27
ENDBRANCH  15  16
ENDBRANCH   1  15
TORSDOF 7
ENDMDL
MODEL 6
REMARK minimizedAffinity -7.01577711
REMARK minimizedRMSD -1
REMARK  Name = CS66
REMARK  9 active torsions:
REMARK  status: ('A' for Active; 'I' for Inactive)
REMARK    1  A    between atoms: N_1  and  C_2
REMARK    2  A    between atoms: C_4  and  C_8
REMARK    3  A    between atoms: C_8  and  C_10
REMARK    4  A    between atoms: C_11  and  C_13
REMARK    5  A    between atoms: C_13  and  S_14
REMARK    6  A    between atoms: S_14  and  C_15
REMARK    7  A    between atoms: C_18  and  C_22
REMARK    8  A    between atoms: N_19  and  C_20
REMARK    9  A    between atoms: C_20  and  C_21
REMARK                            x       y       z     vdW  Elec       q    Type
REMARK                         _______ _______ _______ _____ _____    ______ ____
ROOT
ATOM      1  C   UNL A   1     -11.489 206.928 118.509  0.00  0.00    +0.173 C 
ENDROOT
BRANCH   1   3
ATOM      2  N   UNL A   1     -10.659 207.504 116.254  0.00  0.00    -0.285 N 
ATOM      3  C   UNL A   1     -10.831 206.507 117.201  0.00  0.00    +0.228 C 
ATOM      4  O   UNL A   1     -10.541 205.322 117.032  0.00  0.00    -0.275 OA
ATOM      5  H   UNL A   1     -10.754 208.456 116.589  0.00  0.00    +0.155 HD
BRANCH   2   6
ATOM      6  C   UNL A   1     -10.164 207.328 114.941  0.00  0.00    +0.034 A 
ATOM      7  C   UNL A   1      -8.802 207.193 114.656  0.00  0.00    +0.034 A 
ATOM      8  C   UNL A   1      -8.351 207.090 113.335  0.00  0.00    +0.019 A 
ATOM      9  C   UNL A   1      -9.278 207.062 112.289  0.00  0.00    +0.011 A 
ATOM     10  C   UNL A   1     -10.642 207.157 112.565  0.00  0.00    +0.003 A 
ATOM     11  C   UNL A   1     -11.084 207.287 113.886  0.00  0.00    +0.023 A 
BRANCH   8  12
ATOM     12  C   UNL A   1      -6.905 207.010 113.008  0.00  0.00    +0.160 C 
ATOM     13  O   UNL A   1      -6.080 206.998 113.919  0.00  0.00    -0.292 OA
ATOM     14  C   UNL A   1      -6.466 206.918 111.567  0.00  0.00    +0.091 C 
ENDBRANCH   8  12
ENDBRANCH   2   6
ENDBRANCH   1   3
BRANCH   1  15
ATOM     15  S   UNL A   1     -13.145 206.225 118.767  0.00  0.00    -0.077 S 
BRANCH  15  16
ATOM     16  C   UNL A   1     -13.907 206.660 117.270  0.00  0.00    +0.192 A 
ATOM     17  N   UNL A   1     -14.337 207.873 117.018  0.00  0.00    -0.122 NA
ATOM     18  N   UNL A   1     -14.856 207.885 115.760  0.00  0.00    -0.128 NA
ATOM     19  C   UNL A   1     -14.768 206.671 115.243  0.00  0.00    +0.165 A 
ATOM     20  N   UNL A   1     -14.150 205.843 116.188  0.00  0.00    -0.302 N 
BRANCH  19  21
ATOM     21  C   UNL A   1     -15.226 206.361 113.877  0.00  0.00    +0.022 A 
ATOM     22  C   UNL A   1     -14.270 206.312 112.852  0.00  0.00    +0.031 A 
ATOM     23  C   UNL A   1     -14.680 206.097 111.545  0.00  0.00    +0.111 A 
ATOM     24  N   UNL A   1     -15.966 205.918 111.190  0.00  0.00    -0.263 NA
ATOM     25  C   UNL A   1     -16.878 205.985 112.178  0.00  0.00    +0.111 A 
ATOM     26  C   UNL A   1     -16.564 206.209 113.513  0.00  0.00    +0.031 A 
ENDBRANCH  19  21
BRANCH  20  27
ATOM     27  C   UNL A   1     -13.826 204.451 115.953  0.00  0.00    +0.122 C 
ATOM     28  C   UNL A   1     -14.818 203.345 116.274  0.00  0.00    +0.027 C 
ENDBRANCH  20  27
ENDBRANCH  15  16
ENDBRANCH   1  15
TORSDOF 7
ENDMDL
MODEL 7
REMARK minimizedAffinity -6.89151573
REMARK minimizedRMSD -1
REMARK  Name = CS66
REMARK  9 active torsions:
REMARK  status: ('A' for Active; 'I' for Inactive)
REMARK    1  A    between atoms: N_1  and  C_2
REMARK    2  A    between atoms: C_4  and  C_8
REMARK    3  A    between atoms: C_8  and  C_10
REMARK    4  A    between atoms: C_11  and  C_13
REMARK    5  A    between atoms: C_13  and  S_14
REMARK    6  A    between atoms: S_14  and  C_15
REMARK    7  A    between atoms: C_18  and  C_22
REMARK    8  A    between atoms: N_19  and  C_20
REMARK    9  A    between atoms: C_20  and  C_21
REMARK                            x       y       z     vdW  Elec       q    Type
REMARK                         _______ _______ _______ _____ _____    ______ ____
ROOT
ATOM      1  C   UNL A   1     -12.209 207.141 118.273  0.00  0.00    +0.173 C 
ENDROOT
BRANCH   1   3
ATOM      2  N   UNL A   1     -11.325 207.882 116.087  0.00  0.00    -0.285 N 
ATOM      3  C   UNL A   1     -11.259 206.937 117.099  0.00  0.00    +0.228 C 
ATOM      4  O   UNL A   1     -10.534 205.941 117.081  0.00  0.00    -0.275 OA
ATOM      5  H   UNL A   1     -11.809 208.744 116.315  0.00  0.00    +0.155 HD
BRANCH   2   6
ATOM      6  C   UNL A   1     -10.614 207.845 114.866  0.00  0.00    +0.034 A 
ATOM      7  C   UNL A   1     -11.157 207.324 113.687  0.00  0.00    +0.034 A 
ATOM      8  C   UNL A   1     -10.392 207.246 112.518  0.00  0.00    +0.019 A 
ATOM      9  C   UNL A   1      -9.087 207.748 112.510  0.00  0.00    +0.011 A 
ATOM     10  C   UNL A   1      -8.548 208.305 113.670  0.00  0.00    +0.003 A 
ATOM     11  C   UNL A   1      -9.310 208.355 114.843  0.00  0.00    +0.023 A 
BRANCH   8  12
ATOM     12  C   UNL A   1     -10.929 206.638 111.274  0.00  0.00    +0.160 C 
ATOM     13  O   UNL A   1     -10.684 207.164 110.190  0.00  0.00    -0.292 OA
ATOM     14  C   UNL A   1     -11.744 205.370 111.350  0.00  0.00    +0.091 C 
ENDBRANCH   8  12
ENDBRANCH   2   6
ENDBRANCH   1   3
BRANCH   1  15
ATOM     15  S   UNL A   1     -13.305 205.727 118.593  0.00  0.00    -0.077 S 
BRANCH  15  16
ATOM     16  C   UNL A   1     -13.833 205.368 116.978  0.00  0.00    +0.192 A 
ATOM     17  N   UNL A   1     -13.572 204.229 116.383  0.00  0.00    -0.122 NA
ATOM     18  N   UNL A   1     -14.143 204.257 115.148  0.00  0.00    -0.128 NA
ATOM     19  C   UNL A   1     -14.737 205.425 114.972  0.00  0.00    +0.165 A 
ATOM     20  N   UNL A   1     -14.567 206.176 116.140  0.00  0.00    -0.302 N 
BRANCH  19  21
ATOM     21  C   UNL A   1     -15.469 205.757 113.736  0.00  0.00    +0.022 A 
ATOM     22  C   UNL A   1     -14.766 206.383 112.697  0.00  0.00    +0.031 A 
ATOM     23  C   UNL A   1     -15.445 206.776 111.553  0.00  0.00    +0.111 A 
ATOM     24  N   UNL A   1     -16.764 206.581 111.368  0.00  0.00    -0.263 NA
ATOM     25  C   UNL A   1     -17.433 205.996 112.380  0.00  0.00    +0.111 A 
ATOM     26  C   UNL A   1     -16.843 205.581 113.566  0.00  0.00    +0.031 A 
ENDBRANCH  19  21
BRANCH  20  27
ATOM     27  C   UNL A   1     -15.137 207.493 116.344  0.00  0.00    +0.122 C 
ATOM     28  C   UNL A   1     -14.620 208.703 115.581  0.00  0.00    +0.027 C 
ENDBRANCH  20  27
ENDBRANCH  15  16
ENDBRANCH   1  15
TORSDOF 7
ENDMDL
MODEL 8
REMARK minimizedAffinity -6.78828049
REMARK minimizedRMSD -1
REMARK  Name = CS66
REMARK  9 active torsions:
REMARK  status: ('A' for Active; 'I' for Inactive)
REMARK    1  A    between atoms: N_1  and  C_2
REMARK    2  A    between atoms: C_4  and  C_8
REMARK    3  A    between atoms: C_8  and  C_10
REMARK    4  A    between atoms: C_11  and  C_13
REMARK    5  A    between atoms: C_13  and  S_14
REMARK    6  A    between atoms: S_14  and  C_15
REMARK    7  A    between atoms: C_18  and  C_22
REMARK    8  A    between atoms: N_19  and  C_20
REMARK    9  A    between atoms: C_20  and  C_21
REMARK                            x       y       z     vdW  Elec       q    Type
REMARK                         _______ _______ _______ _____ _____    ______ ____
ROOT
ATOM      1  C   UNL A   1     -12.035 205.897 117.551  0.00  0.00    +0.173 C 
ENDROOT
BRANCH   1   3
ATOM      2  N   UNL A   1     -12.771 206.157 115.206  0.00  0.00    -0.285 N 
ATOM      3  C   UNL A   1     -11.969 205.456 116.094  0.00  0.00    +0.228 C 
ATOM      4  O   UNL A   1     -11.267 204.491 115.791  0.00  0.00    -0.275 OA
ATOM      5  H   UNL A   1     -13.138 207.040 115.541  0.00  0.00    +0.155 HD
BRANCH   2   6
ATOM      6  C   UNL A   1     -12.945 205.865 113.834  0.00  0.00    +0.034 A 
ATOM      7  C   UNL A   1     -12.126 206.402 112.835  0.00  0.00    +0.034 A 
ATOM      8  C   UNL A   1     -12.378 206.140 111.483  0.00  0.00    +0.019 A 
ATOM      9  C   UNL A   1     -13.424 205.283 111.128  0.00  0.00    +0.011 A 
ATOM     10  C   UNL A   1     -14.222 204.711 112.118  0.00  0.00    +0.003 A 
ATOM     11  C   UNL A   1     -13.982 204.999 113.466  0.00  0.00    +0.023 A 
BRANCH   8  12
ATOM     12  C   UNL A   1     -11.560 206.752 110.405  0.00  0.00    +0.160 C 
ATOM     13  O   UNL A   1     -12.121 207.275 109.444  0.00  0.00    -0.292 OA
ATOM     14  C   UNL A   1     -10.054 206.749 110.512  0.00  0.00    +0.091 C 
ENDBRANCH   8  12
ENDBRANCH   2   6
ENDBRANCH   1   3
BRANCH   1  15
ATOM     15  S   UNL A   1     -13.674 206.486 118.073  0.00  0.00    -0.077 S 
BRANCH  15  16
ATOM     16  C   UNL A   1     -14.611 205.041 117.853  0.00  0.00    +0.192 A 
ATOM     17  N   UNL A   1     -15.151 204.714 116.704  0.00  0.00    -0.122 NA
ATOM     18  N   UNL A   1     -15.792 203.524 116.862  0.00  0.00    -0.128 NA
ATOM     19  C   UNL A   1     -15.668 203.129 118.117  0.00  0.00    +0.165 A 
ATOM     20  N   UNL A   1     -14.901 204.081 118.797  0.00  0.00    -0.302 N 
BRANCH  19  21
ATOM     21  C   UNL A   1     -16.236 201.858 118.603  0.00  0.00    +0.022 A 
ATOM     22  C   UNL A   1     -15.970 200.690 117.873  0.00  0.00    +0.031 A 
ATOM     23  C   UNL A   1     -16.552 199.494 118.262  0.00  0.00    +0.111 A 
ATOM     24  N   UNL A   1     -17.368 199.376 119.327  0.00  0.00    -0.263 NA
ATOM     25  C   UNL A   1     -17.632 200.506 120.010  0.00  0.00    +0.111 A 
ATOM     26  C   UNL A   1     -17.107 201.751 119.688  0.00  0.00    +0.031 A 
ENDBRANCH  19  21
BRANCH  20  27
ATOM     27  C   UNL A   1     -14.501 203.957 120.183  0.00  0.00    +0.122 C 
ATOM     28  C   UNL A   1     -13.042 204.066 120.597  0.00  0.00    +0.027 C 
ENDBRANCH  20  27
ENDBRANCH  15  16
ENDBRANCH   1  15
TORSDOF 7
ENDMDL
MODEL 9
REMARK minimizedAffinity -6.75688982
REMARK minimizedRMSD -1
REMARK  Name = CS66
REMARK  9 active torsions:
REMARK  status: ('A' for Active; 'I' for Inactive)
REMARK    1  A    between atoms: N_1  and  C_2
REMARK    2  A    between atoms: C_4  and  C_8
REMARK    3  A    between atoms: C_8  and  C_10
REMARK    4  A    between atoms: C_11  and  C_13
REMARK    5  A    between atoms: C_13  and  S_14
REMARK    6  A    between atoms: S_14  and  C_15
REMARK    7  A    between atoms: C_18  and  C_22
REMARK    8  A    between atoms: N_19  and  C_20
REMARK    9  A    between atoms: C_20  and  C_21
REMARK                            x       y       z     vdW  Elec       q    Type
REMARK                         _______ _______ _______ _____ _____    ______ ____
ROOT
ATOM      1  C   UNL A   1     -12.534 204.425 118.254  0.00  0.00    +0.173 C 
ENDROOT
BRANCH   1   3
ATOM      2  N   UNL A   1     -14.421 202.955 118.877  0.00  0.00    -0.285 N 
ATOM      3  C   UNL A   1     -14.015 204.079 118.173  0.00  0.00    +0.228 C 
ATOM      4  O   UNL A   1     -14.752 204.764 117.463  0.00  0.00    -0.275 OA
ATOM      5  H   UNL A   1     -13.768 202.605 119.569  0.00  0.00    +0.155 HD
BRANCH   2   6
ATOM      6  C   UNL A   1     -15.717 202.392 118.870  0.00  0.00    +0.034 A 
ATOM      7  C   UNL A   1     -16.766 202.894 119.647  0.00  0.00    +0.034 A 
ATOM      8  C   UNL A   1     -18.015 202.263 119.660  0.00  0.00    +0.019 A 
ATOM      9  C   UNL A   1     -18.237 201.150 118.842  0.00  0.00    +0.011 A 
ATOM     10  C   UNL A   1     -17.209 200.665 118.034  0.00  0.00    +0.003 A 
ATOM     11  C   UNL A   1     -15.955 201.285 118.046  0.00  0.00    +0.023 A 
BRANCH   8  12
ATOM     12  C   UNL A   1     -19.122 202.742 120.526  0.00  0.00    +0.160 C 
ATOM     13  O   UNL A   1     -20.254 202.848 120.058  0.00  0.00    -0.292 OA
ATOM     14  C   UNL A   1     -18.853 203.067 121.976  0.00  0.00    +0.091 C 
ENDBRANCH   8  12
ENDBRANCH   2   6
ENDBRANCH   1   3
BRANCH   1  15
ATOM     15  S   UNL A   1     -12.135 206.112 117.707  0.00  0.00    -0.077 S 
BRANCH  15  16
ATOM     16  C   UNL A   1     -11.762 205.820 116.037  0.00  0.00    +0.192 A 
ATOM     17  N   UNL A   1     -10.970 204.850 115.646  0.00  0.00    -0.122 NA
ATOM     18  N   UNL A   1     -10.907 204.880 114.287  0.00  0.00    -0.128 NA
ATOM     19  C   UNL A   1     -11.641 205.884 113.840  0.00  0.00    +0.165 A 
ATOM     20  N   UNL A   1     -12.222 206.518 114.944  0.00  0.00    -0.302 N 
BRANCH  19  21
ATOM     21  C   UNL A   1     -11.796 206.168 112.402  0.00  0.00    +0.022 A 
ATOM     22  C   UNL A   1     -10.719 206.757 111.723  0.00  0.00    +0.031 A 
ATOM     23  C   UNL A   1     -10.862 207.105 110.388  0.00  0.00    +0.111 A 
ATOM     24  N   UNL A   1     -11.990 206.900 109.683  0.00  0.00    -0.263 NA
ATOM     25  C   UNL A   1     -13.024 206.351 110.349  0.00  0.00    +0.111 A 
ATOM     26  C   UNL A   1     -12.979 205.982 111.687  0.00  0.00    +0.031 A 
ENDBRANCH  19  21
BRANCH  20  27
ATOM     27  C   UNL A   1     -13.147 207.629 114.843  0.00  0.00    +0.122 C 
ATOM     28  C   UNL A   1     -14.651 207.407 114.842  0.00  0.00    +0.027 C 
ENDBRANCH  20  27
ENDBRANCH  15  16
ENDBRANCH   1  15
TORSDOF 7
ENDMDL
