REMARK  15 active torsions:
REMARK  status: ('A' for Active; 'I' for Inactive)
REMARK    1  A    between atoms: C_3  and  N_31 
REMARK    2  A    between atoms: N_7  and  C_10 
REMARK    3  A    between atoms: C_11  and  O_30 
REMARK    4  A    between atoms: C_12  and  O_29 
REMARK    5  A    between atoms: C_13  and  C_15 
REMARK    6  A    between atoms: C_15  and  O_16 
REMARK    7  A    between atoms: O_16  and  P_17 
REMARK    8  A    between atoms: P_17  and  O_19 
REMARK    9  A    between atoms: P_17  and  O_20 
REMARK   10  A    between atoms: O_20  and  P_21 
REMARK   11  A    between atoms: P_21  and  O_23 
REMARK   12  A    between atoms: P_21  and  O_24 
REMARK   13  A    between atoms: O_24  and  P_25 
REMARK   14  A    between atoms: P_25  and  O_27 
REMARK   15  A    between atoms: P_25  and  O_28 
ROOT
ATOM      1  C   UNL d   1       3.275  -1.447   0.933  0.00  0.00     0.202 A 
ATOM      2  N   UNL d   1       2.684  -2.421   0.207  0.00  0.00    -0.206 NA
ATOM      3  C   UNL d   1       1.756  -2.067  -0.709  0.00  0.00     0.156 A 
ATOM      4  C   UNL d   1       1.407  -0.715  -0.825  0.00  0.00     0.150 A 
ATOM      5  C   UNL d   1       2.132   0.186  -0.042  0.00  0.00     0.169 A 
ATOM      6  N   UNL d   1       3.080  -0.115   0.861  0.00  0.00    -0.205 NA
ATOM      7  N   UNL d   1       1.701   1.439  -0.413  0.00  0.00    -0.270 N 
ATOM      8  C   UNL d   1       0.677   1.247  -1.296  0.00  0.00     0.182 A 
ATOM      9  N   UNL d   1       0.495  -0.023  -1.584  0.00  0.00    -0.219 NA
ENDROOT
BRANCH   3  10
ATOM     10  N   UNL d   1       1.212  -3.069  -1.494  0.00  0.00    -0.382 N 
ATOM     11  H   UNL d   1       1.333  -3.997  -1.103  0.00  0.00     0.157 HD
ATOM     12  H   UNL d   1       0.322  -2.840  -1.926  0.00  0.00     0.157 HD
ENDBRANCH   3  10
BRANCH   7  13
ATOM     13  C   UNL d   1       2.304   2.680   0.053  0.00  0.00     0.237 C 
ATOM     14  C   UNL d   1       1.646   3.301   1.286  0.00  0.00     0.190 C 
ATOM     15  C   UNL d   1       1.684   4.808   1.017  0.00  0.00     0.172 C 
ATOM     16  C   UNL d   1       2.397   5.005  -0.350  0.00  0.00     0.177 C 
ATOM     17  O   UNL d   1       2.306   3.707  -0.992  0.00  0.00    -0.331 OA
BRANCH  14  18
ATOM     18  O   UNL d   1       2.280   2.942   2.520  0.00  0.00    -0.378 OA
ATOM     19  H   UNL d   1       3.237   3.095   2.470  0.00  0.00     0.211 HD
ENDBRANCH  14  18
BRANCH  15  20
ATOM     20  O   UNL d   1       2.246   5.588   2.071  0.00  0.00    -0.380 OA
ATOM     21  H   UNL d   1       3.061   5.168   2.404  0.00  0.00     0.211 HD
ENDBRANCH  15  20
BRANCH  16  22
ATOM     22  C   UNL d   1       3.876   5.527  -0.190  0.00  0.00     0.186 C 
BRANCH  22  23
ATOM     23  O   UNL d   1       4.566   6.091  -1.339  0.00  0.00    -0.275 OA
BRANCH  23  24
ATOM     24  P   UNL d   1       6.202   6.020  -1.329  0.00  0.00     0.402 P 
ATOM     25  O   UNL d   1       6.771   5.140  -0.257  0.00  0.00    -0.631 OA
BRANCH  24  26
ATOM     26  O   UNL d   1       6.482   5.337  -2.756  0.00  0.00    -0.307 OA
ATOM     27  H   UNL d   1       7.024   4.532  -2.629  0.00  0.00     0.222 HD
ENDBRANCH  24  26
BRANCH  24  28
ATOM     28  O   UNL d   1       6.906   7.488  -1.519  0.00  0.00    -0.195 OA
BRANCH  28  29
ATOM     29  P   UNL d   1       5.937   8.658  -0.690  0.00  0.00     0.410 P 
ATOM     30  O   UNL d   1       6.553   8.230   0.646  0.00  0.00    -0.631 OA
BRANCH  29  31
ATOM     31  O   UNL d   1       6.913   9.811  -1.307  0.00  0.00    -0.307 OA
ATOM     32  H   UNL d   1       6.665  10.107  -2.208  0.00  0.00     0.222 HD
ENDBRANCH  29  31
BRANCH  29  33
ATOM     33  O   UNL d   1       4.969   9.827   0.139  0.00  0.00    -0.195 OA
BRANCH  33  34
ATOM     34  P   UNL d   1       5.973  11.126   0.684  0.00  0.00     0.399 P 
ATOM     35  O   UNL d   1       5.170  12.106  -0.175  0.00  0.00    -0.631 OA
BRANCH  34  36
ATOM     36  O   UNL d   1       5.222  11.153   2.133  0.00  0.00    -0.307 OA
ATOM     37  H   UNL d   1       4.489  11.793   2.050  0.00  0.00     0.222 HD
ENDBRANCH  34  36
BRANCH  34  38
ATOM     38  O   UNL d   1       6.978  12.424   1.230  0.00  0.00    -0.307 OA
ATOM     39  H   UNL d   1       7.623  12.068   1.866  0.00  0.00     0.222 HD
ENDBRANCH  34  38
ENDBRANCH  33  34
ENDBRANCH  29  33
ENDBRANCH  28  29
ENDBRANCH  24  28
ENDBRANCH  23  24
ENDBRANCH  22  23
ENDBRANCH  16  22
ENDBRANCH   7  13
TORSDOF 15
